@<TRIPOS>MOLECULE
4w7t_ligand
34 36 1 0 0 
SMALL
USER_CHARGES


@<TRIPOS>ATOM
  1 C1      -3.0030    -9.8140   -26.3390 C.ar  1 MOL   0.1665 
  2 C2      -1.7220    -9.7660   -25.8430 C.ar  1 MOL   0.0862 
  3 C3      -1.4770   -10.3460   -24.6220 C.ar  1 MOL   0.1665 
  4 O1      -0.8430    -8.7110   -27.7230 O.2   1 MOL  -0.5700 
  5 C11      4.2450   -10.9180   -23.3770 C.ar  1 MOL  -0.1500 
  6 C12      4.8040    -9.6690   -23.2450 C.ar  1 MOL  -0.1500 
  7 C13      4.1110    -8.5670   -23.6870 C.ar  1 MOL  -0.1500 
  8 C14      2.8680    -8.7180   -24.2580 C.ar  1 MOL  -0.1500 
  9 C15     -3.3730    -9.2140   -27.6520 C.3   1 MOL  -0.0965 
 10 N1      -3.9890   -10.4070   -25.6660 N.ar  1 MOL  -0.6200 
 11 N2      -2.4510   -10.9370   -23.9300 N.ar  1 MOL  -0.6200 
 12 N3      -4.6930   -11.5590   -23.7750 N.pl3 1 MOL  -0.9000 
 13 C4      -3.6670   -10.9410   -24.4850 C.ar  1 MOL   0.7200 
 14 C5      -0.6460    -9.1090   -26.5860 C.2   1 MOL   0.4228 
 15 C6       0.6550    -8.9290   -25.8670 C.3   1 MOL  -0.0990 
 16 C7       0.9570   -10.1430   -25.0290 C.3   1 MOL   0.0635 
 17 C8       2.3050    -9.9670   -24.3940 C.ar  1 MOL  -0.1435 
 18 C9      -0.1220   -10.3420   -23.9920 C.3   1 MOL  -0.0165 
 19 C10      3.0040   -11.0640   -23.9490 C.ar  1 MOL  -0.1500 
 20 H        4.7851   -11.7909   -23.0286 H     1 MOL   0.1500 
 21 H        5.7838    -9.5539   -22.7958 H     1 MOL   0.1500 
 22 H        4.5440    -7.5784   -23.5857 H     1 MOL   0.1500 
 23 H        2.3268    -7.8449   -24.6041 H     1 MOL   0.1500 
 24 H       -4.4451    -9.3739   -27.8391 H     1 MOL   0.0800 
 25 H       -2.7864    -9.6905   -28.4512 H     1 MOL   0.0800 
 26 H       -3.1607    -8.1348   -27.6349 H     1 MOL   0.0800 
 27 H       -5.6459   -11.5855   -24.1651 H     1 MOL   0.4000 
 28 H       -4.4991   -11.9897   -22.8597 H     1 MOL   0.4000 
 29 H        0.5913    -8.0446   -25.2160 H     1 MOL   0.0800 
 30 H        1.4602    -8.7856   -26.6026 H     1 MOL   0.0800 
 31 H        0.9845   -11.0302   -25.6787 H     1 MOL   0.0800 
 32 H        0.0410   -11.3037   -23.4835 H     1 MOL   0.0800 
 33 H       -0.0695    -9.5251   -23.2572 H     1 MOL   0.0800 
 34 H        2.5723   -12.0532   -24.0502 H     1 MOL   0.1500 
@<TRIPOS>BOND
  1   1   2  ar  
  2   1   9  1   
  3   1  10  ar  
  4   2   3  ar  
  5   2  14  1   
  6   3  11  ar  
  7   3  18  1   
  8   4  14  2   
  9   5   6  ar  
 10   5  19  ar  
 11   5  20  1   
 12   6   7  ar  
 13   6  21  1   
 14   7   8  ar  
 15   7  22  1   
 16   8  17  ar  
 17   8  23  1   
 18   9  24  1   
 19   9  25  1   
 20   9  26  1   
 21  10  13  ar  
 22  11  13  ar  
 23  12  13  1   
 24  12  27  1   
 25  12  28  1   
 26  14  15  1   
 27  15  16  1   
 28  15  29  1   
 29  15  30  1   
 30  16  17  1   
 31  16  18  1   
 32  16  31  1   
 33  17  19  ar  
 34  18  32  1   
 35  18  33  1   
 36  19  34  1   
@<TRIPOS>SUBSTRUCTURE
  1 MOL  18 GROUP 4 **** **** 0

# MOE 2020.09 (io_trps.svl 2020.11)
