4wiv_ligand
  MOE2018           3D
4wiv_ligand
 51 54  0  0  0  0  0  0  0  0999 V2000
   11.4220   -9.2040  -11.8480 O   0  0  0  0  0  0  0  0  0  0  0  0
   11.5710   -7.8910  -11.7060 C   0  0  0  0  0  0  0  0  0  0  0  0
   12.7520   -7.6690  -11.0880 C   0  0  0  0  0  0  0  0  0  0  0  0
   13.2910   -8.9480  -10.8970 C   0  0  0  0  0  0  0  0  0  0  0  0
   14.6270   -9.3050  -10.2800 C   0  0  0  0  0  0  0  0  0  0  0  0
   10.5110   -6.9580  -12.2360 C   0  0  0  0  0  0  0  0  0  0  0  0
   13.3440   -6.3780  -10.7300 C   0  0  0  0  0  0  0  0  0  0  0  0
   14.0110   -6.2040   -9.5120 C   0  0  0  0  0  0  0  0  0  0  0  0
   15.4080   -2.7210   -9.8270 C   0  0  0  0  0  0  0  0  0  0  0  0
   16.6610   -1.3510   -8.5720 C   0  0  0  0  0  0  0  0  0  0  0  0
   15.8350   -1.6760  -10.6120 C   0  0  0  0  0  0  0  0  0  0  0  0
   12.4820   -9.8420  -11.3470 N   0  0  0  0  0  0  0  0  0  0  0  0
   13.2820   -5.2820  -11.5980 C   0  0  0  0  0  0  0  0  0  0  0  0
   13.9230   -4.0900  -11.3000 C   0  0  0  0  0  0  0  0  0  0  0  0
   14.6470   -3.9330  -10.1100 C   0  0  0  0  0  0  0  0  0  0  0  0
   14.6480   -5.0100   -9.2080 C   0  0  0  0  0  0  0  0  0  0  0  0
   15.9240   -2.4690   -8.5720 N   0  0  0  0  0  0  0  0  0  0  0  0
   16.6130   -0.8560   -9.8230 N   0  3  0  0  0  0  0  0  0  0  0  0
   17.3880   -0.7010   -7.5420 C   0  0  0  0  0  0  0  0  0  0  0  0
   18.0080    0.4160   -7.7800 N   0  0  0  0  0  0  0  0  0  0  0  0
   17.9400    0.9540   -9.0570 C   0  0  0  0  0  0  0  0  0  0  0  0
   17.2540    0.3470  -10.0800 C   0  0  0  0  0  0  0  0  0  0  0  0
   15.5170   -1.3180  -11.9380 N   0  0  0  0  0  0  0  0  0  0  0  0
   16.4590   -1.4620  -13.0690 C   0  0  0  0  0  0  0  0  0  0  0  0
   16.4940   -0.1420  -13.8530 C   0  0  0  0  0  0  0  0  0  0  0  0
   17.8920   -1.8460  -12.6620 C   0  0  0  0  0  0  0  0  0  0  0  0
   15.9200   -2.5690  -13.9920 C   0  0  0  0  0  0  0  0  0  0  0  0
   14.9020  -10.3110  -10.5950 H   0  0  0  0  0  0  0  0  0  0  0  0
   14.5290   -9.2650   -9.1950 H   0  0  0  0  0  0  0  0  0  0  0  0
   15.3720   -8.5900  -10.6310 H   0  0  0  0  0  0  0  0  0  0  0  0
   10.3470   -6.1680  -11.5040 H   0  0  0  0  0  0  0  0  0  0  0  0
    9.6050   -7.5410  -12.3950 H   0  0  0  0  0  0  0  0  0  0  0  0
   10.8570   -6.5450  -13.1830 H   0  0  0  0  0  0  0  0  0  0  0  0
   14.0360   -6.9970   -8.8110 H   0  0  0  0  0  0  0  0  0  0  0  0
   12.7470   -5.3570  -12.5080 H   0  0  0  0  0  0  0  0  0  0  0  0
   13.8540   -3.2940  -11.9910 H   0  0  0  0  0  0  0  0  0  0  0  0
   15.1560   -4.9300   -8.2820 H   0  0  0  0  0  0  0  0  0  0  0  0
   17.4230   -1.1270   -6.5710 H   0  0  0  0  0  0  0  0  0  0  0  0
   18.4450    1.8730   -9.2150 H   0  0  0  0  0  0  0  0  0  0  0  0
   17.1570    0.7200  -11.0660 H   0  0  0  0  0  0  0  0  0  0  0  0
   14.6360   -1.7620  -12.2370 H   0  0  0  0  0  0  0  0  0  0  0  0
   17.0920   -0.2570  -14.7590 H   0  0  0  0  0  0  0  0  0  0  0  0
   16.9300    0.6500  -13.2480 H   0  0  0  0  0  0  0  0  0  0  0  0
   15.4850    0.1550  -14.1350 H   0  0  0  0  0  0  0  0  0  0  0  0
   18.5210   -1.9000  -13.5490 H   0  0  0  0  0  0  0  0  0  0  0  0
   17.8920   -2.8190  -12.1810 H   0  0  0  0  0  0  0  0  0  0  0  0
   18.3310   -1.1060  -11.9980 H   0  0  0  0  0  0  0  0  0  0  0  0
   16.5480   -2.6580  -14.8800 H   0  0  0  0  0  0  0  0  0  0  0  0
   14.9030   -2.3370  -14.3080 H   0  0  0  0  0  0  0  0  0  0  0  0
   15.9170   -3.5260  -13.4700 H   0  0  0  0  0  0  0  0  0  0  0  0
   15.7850   -3.0590   -7.7340 H   0  0  0  0  0  0  0  0  0  0  0  0
  1  2  1  0  0  0  0
  1 12  1  0  0  0  0
  2  3  2  0  0  0  0
  2  6  1  0  0  0  0
  3  4  1  0  0  0  0
  3  7  1  0  0  0  0
  4  5  1  0  0  0  0
  4 12  2  0  0  0  0
  5 28  1  0  0  0  0
  5 29  1  0  0  0  0
  5 30  1  0  0  0  0
  6 31  1  0  0  0  0
  6 32  1  0  0  0  0
  6 33  1  0  0  0  0
  7  8  1  0  0  0  0
  7 13  2  0  0  0  0
  8 16  2  0  0  0  0
  8 34  1  0  0  0  0
  9 11  2  0  0  0  0
  9 15  1  0  0  0  0
  9 17  1  0  0  0  0
 10 17  1  0  0  0  0
 10 18  1  0  0  0  0
 10 19  2  0  0  0  0
 11 18  1  0  0  0  0
 11 23  1  0  0  0  0
 13 14  1  0  0  0  0
 13 35  1  0  0  0  0
 14 15  2  0  0  0  0
 14 36  1  0  0  0  0
 15 16  1  0  0  0  0
 16 37  1  0  0  0  0
 17 51  1  0  0  0  0
 18 22  2  0  0  0  0
 19 20  1  0  0  0  0
 19 38  1  0  0  0  0
 20 21  2  0  0  0  0
 21 22  1  0  0  0  0
 21 39  1  0  0  0  0
 22 40  1  0  0  0  0
 23 24  1  0  0  0  0
 23 41  1  0  0  0  0
 24 25  1  0  0  0  0
 24 26  1  0  0  0  0
 24 27  1  0  0  0  0
 25 42  1  0  0  0  0
 25 43  1  0  0  0  0
 25 44  1  0  0  0  0
 26 45  1  0  0  0  0
 26 46  1  0  0  0  0
 26 47  1  0  0  0  0
 27 48  1  0  0  0  0
 27 49  1  0  0  0  0
 27 50  1  0  0  0  0
M  CHG  1  18   1
M  END
> <rseq>
1

> <mseq>
1

> <S>
-6.791104

> <rmsd>
4.150537

> <rmsd_refine>
2.737891

> <E_conf>
-8.336548

> <E_place>
-51.79136

> <E_score1>
-8.473358

> <E_refine>
-37.97045

> <E_score2>
-6.791104

> <PLIF_pronum>
1

>  <PLIF_raw>
[[9,17,10,18,11],[845,845,845,845,845],[92,92,92,92,92],[10,10,10,10,10],[0.6,0.6,0.6,0.6,0.6]]

> <FP:PLIF>
1

>  <PLIF_ligidx>
[[9,17,10,18,11]]

$$$$
4wiv_ligand
  MOE2018           3D
4wiv_ligand
 51 54  0  0  0  0  0  0  0  0999 V2000
   17.0970   -0.4230   -7.8310 O   0  0  0  0  0  0  0  0  0  0  0  0
   16.1830   -1.3850   -7.8860 C   0  0  0  0  0  0  0  0  0  0  0  0
   16.0490   -1.7650   -9.1810 C   0  0  0  0  0  0  0  0  0  0  0  0
   16.9560   -0.9400   -9.8730 C   0  0  0  0  0  0  0  0  0  0  0  0
   17.2800   -0.8900  -11.3530 C   0  0  0  0  0  0  0  0  0  0  0  0
   15.5210   -1.8060   -6.5900 C   0  0  0  0  0  0  0  0  0  0  0  0
   15.1660   -2.8190   -9.7140 C   0  0  0  0  0  0  0  0  0  0  0  0
   14.7210   -2.8080  -11.0430 C   0  0  0  0  0  0  0  0  0  0  0  0
   12.5690   -5.8890  -11.2490 C   0  0  0  0  0  0  0  0  0  0  0  0
   11.1280   -6.8110  -12.6920 C   0  0  0  0  0  0  0  0  0  0  0  0
   12.4220   -7.2180  -10.9370 C   0  0  0  0  0  0  0  0  0  0  0  0
   17.5600   -0.1570   -9.0500 N   0  0  0  0  0  0  0  0  0  0  0  0
   14.7410   -3.8880   -8.9090 C   0  0  0  0  0  0  0  0  0  0  0  0
   13.8810   -4.8640   -9.3910 C   0  0  0  0  0  0  0  0  0  0  0  0
   13.4430   -4.8510  -10.7210 C   0  0  0  0  0  0  0  0  0  0  0  0
   13.9090   -3.8160  -11.5430 C   0  0  0  0  0  0  0  0  0  0  0  0
   11.7290   -5.6730  -12.3190 N   0  0  0  0  0  0  0  0  0  0  0  0
   11.5550   -7.7690  -11.8440 N   0  3  0  0  0  0  0  0  0  0  0  0
   10.2470   -7.1080  -13.7630 C   0  0  0  0  0  0  0  0  0  0  0  0
    9.8390   -8.3290  -13.9560 N   0  0  0  0  0  0  0  0  0  0  0  0
   10.2780   -9.3200  -13.0910 C   0  0  0  0  0  0  0  0  0  0  0  0
   11.1130   -9.0660  -12.0310 C   0  0  0  0  0  0  0  0  0  0  0  0
   12.9690   -8.0010   -9.9030 N   0  0  0  0  0  0  0  0  0  0  0  0
   14.3220   -8.5420  -10.0220 C   0  0  0  0  0  0  0  0  0  0  0  0
   14.9760   -8.5200   -8.6320 C   0  0  0  0  0  0  0  0  0  0  0  0
   14.2520   -9.9340  -10.6300 C   0  0  0  0  0  0  0  0  0  0  0  0
   15.1870   -7.7330  -10.9680 C   0  0  0  0  0  0  0  0  0  0  0  0
   18.2440   -0.3970  -11.4830 H   0  0  0  0  0  0  0  0  0  0  0  0
   16.5010   -0.3180  -11.8550 H   0  0  0  0  0  0  0  0  0  0  0  0
   17.3360   -1.9070  -11.7410 H   0  0  0  0  0  0  0  0  0  0  0  0
   14.4680   -2.0070   -6.7830 H   0  0  0  0  0  0  0  0  0  0  0  0
   15.6170   -0.9900   -5.8730 H   0  0  0  0  0  0  0  0  0  0  0  0
   16.0330   -2.6930   -6.2170 H   0  0  0  0  0  0  0  0  0  0  0  0
   14.9960   -2.0200  -11.6900 H   0  0  0  0  0  0  0  0  0  0  0  0
   15.0800   -3.9690   -7.9130 H   0  0  0  0  0  0  0  0  0  0  0  0
   13.5660   -5.6360   -8.7390 H   0  0  0  0  0  0  0  0  0  0  0  0
   13.6390   -3.7940  -12.5660 H   0  0  0  0  0  0  0  0  0  0  0  0
    9.9270   -6.3350  -14.4140 H   0  0  0  0  0  0  0  0  0  0  0  0
    9.9290  -10.3020  -13.2830 H   0  0  0  0  0  0  0  0  0  0  0  0
   11.4670   -9.7780  -11.3310 H   0  0  0  0  0  0  0  0  0  0  0  0
   12.9920   -7.4520   -9.0310 H   0  0  0  0  0  0  0  0  0  0  0  0
   15.7780   -9.2530   -8.5750 H   0  0  0  0  0  0  0  0  0  0  0  0
   14.2430   -8.7410   -7.8630 H   0  0  0  0  0  0  0  0  0  0  0  0
   15.3810   -7.5310   -8.4140 H   0  0  0  0  0  0  0  0  0  0  0  0
   15.2470  -10.3780  -10.6800 H   0  0  0  0  0  0  0  0  0  0  0  0
   13.8410   -9.8480  -11.6320 H   0  0  0  0  0  0  0  0  0  0  0  0
   13.6080  -10.5700  -10.0440 H   0  0  0  0  0  0  0  0  0  0  0  0
   16.1760   -8.1800  -11.0470 H   0  0  0  0  0  0  0  0  0  0  0  0
   15.2690   -6.7160  -10.6110 H   0  0  0  0  0  0  0  0  0  0  0  0
   14.7230   -7.7240  -11.9430 H   0  0  0  0  0  0  0  0  0  0  0  0
   11.5980   -4.7690  -12.8100 H   0  0  0  0  0  0  0  0  0  0  0  0
  1  2  1  0  0  0  0
  1 12  1  0  0  0  0
  2  3  2  0  0  0  0
  2  6  1  0  0  0  0
  3  4  1  0  0  0  0
  3  7  1  0  0  0  0
  4  5  1  0  0  0  0
  4 12  2  0  0  0  0
  5 28  1  0  0  0  0
  5 29  1  0  0  0  0
  5 30  1  0  0  0  0
  6 31  1  0  0  0  0
  6 32  1  0  0  0  0
  6 33  1  0  0  0  0
  7  8  1  0  0  0  0
  7 13  2  0  0  0  0
  8 16  2  0  0  0  0
  8 34  1  0  0  0  0
  9 11  2  0  0  0  0
  9 15  1  0  0  0  0
  9 17  1  0  0  0  0
 10 17  1  0  0  0  0
 10 18  1  0  0  0  0
 10 19  2  0  0  0  0
 11 18  1  0  0  0  0
 11 23  1  0  0  0  0
 13 14  1  0  0  0  0
 13 35  1  0  0  0  0
 14 15  2  0  0  0  0
 14 36  1  0  0  0  0
 15 16  1  0  0  0  0
 16 37  1  0  0  0  0
 17 51  1  0  0  0  0
 18 22  2  0  0  0  0
 19 20  1  0  0  0  0
 19 38  1  0  0  0  0
 20 21  2  0  0  0  0
 21 22  1  0  0  0  0
 21 39  1  0  0  0  0
 22 40  1  0  0  0  0
 23 24  1  0  0  0  0
 23 41  1  0  0  0  0
 24 25  1  0  0  0  0
 24 26  1  0  0  0  0
 24 27  1  0  0  0  0
 25 42  1  0  0  0  0
 25 43  1  0  0  0  0
 25 44  1  0  0  0  0
 26 45  1  0  0  0  0
 26 46  1  0  0  0  0
 26 47  1  0  0  0  0
 27 48  1  0  0  0  0
 27 49  1  0  0  0  0
 27 50  1  0  0  0  0
M  CHG  1  18   1
M  END
> <rseq>
1

> <mseq>
1

> <S>
-6.662825

> <rmsd>
8.312171

> <rmsd_refine>
2.081573

> <E_conf>
-4.436714

> <E_place>
-47.81775

> <E_score1>
-8.628024

> <E_refine>
-29.13533

> <E_score2>
-6.662825

> <PLIF_pronum>
1

>  <PLIF_raw>
[[17,7,13,14,15,16,8,7,13,14,15,16,8],[683,684,684,684,684,684,684,844,844,844,844,844,844],[82,82,82,82,82,82,82,92,92,92,92,92,92],[3,10,10,10,10,10,10,10,10,10,10,10,10],[3.4,0.5,0.5,0.5,0.5,0.5,0.5,0.6,0.6,0.6,0.6,0.6,0.6]]

> <FP:PLIF>
2 3 4 1

>  <PLIF_ligidx>
[17,17,[7,13,14,15,16,8],[7,13,14,15,16,8]]

$$$$
4wiv_ligand
  MOE2018           3D
4wiv_ligand
 51 54  0  0  0  0  0  0  0  0999 V2000
   12.6920   -9.8720  -11.3590 O   0  0  0  0  0  0  0  0  0  0  0  0
   13.5270   -9.0160  -10.7800 C   0  0  0  0  0  0  0  0  0  0  0  0
   12.9680   -7.7880  -10.8390 C   0  0  0  0  0  0  0  0  0  0  0  0
   11.7640   -7.9820  -11.5250 C   0  0  0  0  0  0  0  0  0  0  0  0
   10.7430   -6.9340  -11.9050 C   0  0  0  0  0  0  0  0  0  0  0  0
   14.8430   -9.4900  -10.2070 C   0  0  0  0  0  0  0  0  0  0  0  0
   13.5240   -6.5590  -10.2760 C   0  0  0  0  0  0  0  0  0  0  0  0
   13.5960   -5.3750  -11.0170 C   0  0  0  0  0  0  0  0  0  0  0  0
   15.2930   -3.0220   -8.6110 C   0  0  0  0  0  0  0  0  0  0  0  0
   16.4950   -1.1360   -8.6730 C   0  0  0  0  0  0  0  0  0  0  0  0
   15.5380   -2.6140   -7.3230 C   0  0  0  0  0  0  0  0  0  0  0  0
   11.6160   -9.2280  -11.8180 N   0  0  0  0  0  0  0  0  0  0  0  0
   14.0170   -6.5440   -8.9660 C   0  0  0  0  0  0  0  0  0  0  0  0
   14.5730   -5.3970   -8.4210 C   0  0  0  0  0  0  0  0  0  0  0  0
   14.6620   -4.2120   -9.1650 C   0  0  0  0  0  0  0  0  0  0  0  0
   14.1570   -4.2270  -10.4750 C   0  0  0  0  0  0  0  0  0  0  0  0
   15.8500   -2.0490   -9.4140 N   0  0  0  0  0  0  0  0  0  0  0  0
   16.3290   -1.4940   -7.3850 N   0  3  0  0  0  0  0  0  0  0  0  0
   17.2570    0.0060   -9.0320 C   0  0  0  0  0  0  0  0  0  0  0  0
   17.8510    0.7130   -8.1160 N   0  0  0  0  0  0  0  0  0  0  0  0
   17.7290    0.3200   -6.7890 C   0  0  0  0  0  0  0  0  0  0  0  0
   16.9920   -0.7720   -6.4060 C   0  0  0  0  0  0  0  0  0  0  0  0
   15.1290   -3.1500   -6.0880 N   0  0  0  0  0  0  0  0  0  0  0  0
   13.9420   -2.5740   -5.4140 C   0  0  0  0  0  0  0  0  0  0  0  0
   13.3740   -3.6620   -4.4890 C   0  0  0  0  0  0  0  0  0  0  0  0
   14.3120   -1.3550   -4.5560 C   0  0  0  0  0  0  0  0  0  0  0  0
   12.8470   -2.1780   -6.4180 C   0  0  0  0  0  0  0  0  0  0  0  0
   10.4700   -6.3790  -11.0110 H   0  0  0  0  0  0  0  0  0  0  0  0
    9.8690   -7.4350  -12.3220 H   0  0  0  0  0  0  0  0  0  0  0  0
   11.1830   -6.2740  -12.6520 H   0  0  0  0  0  0  0  0  0  0  0  0
   15.5730   -8.6890  -10.3190 H   0  0  0  0  0  0  0  0  0  0  0  0
   15.1660  -10.3720  -10.7580 H   0  0  0  0  0  0  0  0  0  0  0  0
   14.6950   -9.7290   -9.1550 H   0  0  0  0  0  0  0  0  0  0  0  0
   13.2270   -5.3520  -12.0090 H   0  0  0  0  0  0  0  0  0  0  0  0
   13.9660   -7.4250   -8.3790 H   0  0  0  0  0  0  0  0  0  0  0  0
   14.9490   -5.4340   -7.4320 H   0  0  0  0  0  0  0  0  0  0  0  0
   14.2010   -3.3500  -11.0690 H   0  0  0  0  0  0  0  0  0  0  0  0
   17.3450    0.2830  -10.0510 H   0  0  0  0  0  0  0  0  0  0  0  0
   18.2430    0.9050   -6.0700 H   0  0  0  0  0  0  0  0  0  0  0  0
   16.8830   -1.1310   -5.4150 H   0  0  0  0  0  0  0  0  0  0  0  0
   14.9230   -4.1550   -6.1890 H   0  0  0  0  0  0  0  0  0  0  0  0
   12.4870   -3.2940   -3.9700 H   0  0  0  0  0  0  0  0  0  0  0  0
   14.1200   -3.9490   -3.7460 H   0  0  0  0  0  0  0  0  0  0  0  0
   13.1000   -4.5420   -5.0690 H   0  0  0  0  0  0  0  0  0  0  0  0
   13.4520   -1.0440   -3.9620 H   0  0  0  0  0  0  0  0  0  0  0  0
   14.6020   -0.5170   -5.1890 H   0  0  0  0  0  0  0  0  0  0  0  0
   15.1300   -1.6060   -3.8800 H   0  0  0  0  0  0  0  0  0  0  0  0
   11.9470   -1.8630   -5.8890 H   0  0  0  0  0  0  0  0  0  0  0  0
   12.6070   -3.0230   -7.0540 H   0  0  0  0  0  0  0  0  0  0  0  0
   13.1800   -1.3540   -7.0450 H   0  0  0  0  0  0  0  0  0  0  0  0
   15.8300   -2.0350  -10.4480 H   0  0  0  0  0  0  0  0  0  0  0  0
  1  2  1  0  0  0  0
  1 12  1  0  0  0  0
  2  3  2  0  0  0  0
  2  6  1  0  0  0  0
  3  4  1  0  0  0  0
  3  7  1  0  0  0  0
  4  5  1  0  0  0  0
  4 12  2  0  0  0  0
  5 28  1  0  0  0  0
  5 29  1  0  0  0  0
  5 30  1  0  0  0  0
  6 31  1  0  0  0  0
  6 32  1  0  0  0  0
  6 33  1  0  0  0  0
  7  8  1  0  0  0  0
  7 13  2  0  0  0  0
  8 16  2  0  0  0  0
  8 34  1  0  0  0  0
  9 11  2  0  0  0  0
  9 15  1  0  0  0  0
  9 17  1  0  0  0  0
 10 17  1  0  0  0  0
 10 18  1  0  0  0  0
 10 19  2  0  0  0  0
 11 18  1  0  0  0  0
 11 23  1  0  0  0  0
 13 14  1  0  0  0  0
 13 35  1  0  0  0  0
 14 15  2  0  0  0  0
 14 36  1  0  0  0  0
 15 16  1  0  0  0  0
 16 37  1  0  0  0  0
 17 51  1  0  0  0  0
 18 22  2  0  0  0  0
 19 20  1  0  0  0  0
 19 38  1  0  0  0  0
 20 21  2  0  0  0  0
 21 22  1  0  0  0  0
 21 39  1  0  0  0  0
 22 40  1  0  0  0  0
 23 24  1  0  0  0  0
 23 41  1  0  0  0  0
 24 25  1  0  0  0  0
 24 26  1  0  0  0  0
 24 27  1  0  0  0  0
 25 42  1  0  0  0  0
 25 43  1  0  0  0  0
 25 44  1  0  0  0  0
 26 45  1  0  0  0  0
 26 46  1  0  0  0  0
 26 47  1  0  0  0  0
 27 48  1  0  0  0  0
 27 49  1  0  0  0  0
 27 50  1  0  0  0  0
M  CHG  1  18   1
M  END
> <rseq>
1

> <mseq>
1

> <S>
-6.585648

> <rmsd>
0.4748241

> <rmsd_refine>
1.182748

> <E_conf>
-10.77216

> <E_place>
-68.60401

> <E_score1>
-9.839826

> <E_refine>
-35.80579

> <E_score2>
-6.585648

> <PLIF_pronum>
1

>  <PLIF_raw>
[[10,19,20,21,22,18],[669,669,669,669,669,669],[81,81,81,81,81,81],[10,10,10,10,10,10],[0.7,0.7,0.7,0.7,0.7,0.7]]

> <FP:PLIF>
5

>  <PLIF_ligidx>
[[10,19,20,21,22,18]]

$$$$
4wiv_ligand
  MOE2018           3D
4wiv_ligand
 51 54  0  0  0  0  0  0  0  0999 V2000
   15.2200   -8.7690   -2.8260 O   0  0  0  0  0  0  0  0  0  0  0  0
   14.6410   -7.8880   -3.6340 C   0  0  0  0  0  0  0  0  0  0  0  0
   15.1390   -8.0700   -4.8800 C   0  0  0  0  0  0  0  0  0  0  0  0
   16.0580   -9.1220   -4.7330 C   0  0  0  0  0  0  0  0  0  0  0  0
   16.9400   -9.7580   -5.7860 C   0  0  0  0  0  0  0  0  0  0  0  0
   13.6390   -6.9170   -3.0540 C   0  0  0  0  0  0  0  0  0  0  0  0
   14.8030   -7.3180   -6.0960 C   0  0  0  0  0  0  0  0  0  0  0  0
   14.8010   -7.9360   -7.3540 C   0  0  0  0  0  0  0  0  0  0  0  0
   14.0920   -5.0780   -9.6750 C   0  0  0  0  0  0  0  0  0  0  0  0
   14.8570   -3.5110  -11.0680 C   0  0  0  0  0  0  0  0  0  0  0  0
   13.3660   -5.1520  -10.8440 C   0  0  0  0  0  0  0  0  0  0  0  0
   16.0860   -9.5190   -3.5090 N   0  0  0  0  0  0  0  0  0  0  0  0
   14.4930   -5.9520   -6.0490 C   0  0  0  0  0  0  0  0  0  0  0  0
   14.1960   -5.2390   -7.2030 C   0  0  0  0  0  0  0  0  0  0  0  0
   14.2240   -5.8570   -8.4600 C   0  0  0  0  0  0  0  0  0  0  0  0
   14.5340   -7.2200   -8.5100 C   0  0  0  0  0  0  0  0  0  0  0  0
   14.9280   -3.9960   -9.8270 N   0  0  0  0  0  0  0  0  0  0  0  0
   13.9730   -4.2790  -11.7300 N   0  3  0  0  0  0  0  0  0  0  0  0
   15.5750   -2.4660  -11.7060 C   0  0  0  0  0  0  0  0  0  0  0  0
   15.4710   -2.2870  -12.9890 N   0  0  0  0  0  0  0  0  0  0  0  0
   14.6450   -3.1370  -13.7040 C   0  0  0  0  0  0  0  0  0  0  0  0
   13.9080   -4.1280  -13.1070 C   0  0  0  0  0  0  0  0  0  0  0  0
   12.0610   -5.6520  -11.1200 N   0  0  0  0  0  0  0  0  0  0  0  0
   11.6920   -6.9780  -11.6700 C   0  0  0  0  0  0  0  0  0  0  0  0
   10.4620   -7.5570  -10.9540 C   0  0  0  0  0  0  0  0  0  0  0  0
   11.1250   -6.7580  -13.0920 C   0  0  0  0  0  0  0  0  0  0  0  0
   12.7950   -8.0380  -11.4860 C   0  0  0  0  0  0  0  0  0  0  0  0
   17.7730  -10.2580   -5.2900 H   0  0  0  0  0  0  0  0  0  0  0  0
   17.3150   -8.9770   -6.4460 H   0  0  0  0  0  0  0  0  0  0  0  0
   16.3430  -10.4870   -6.3340 H   0  0  0  0  0  0  0  0  0  0  0  0
   14.1600   -5.9880   -2.8240 H   0  0  0  0  0  0  0  0  0  0  0  0
   13.2320   -7.3500   -2.1410 H   0  0  0  0  0  0  0  0  0  0  0  0
   12.8530   -6.7520   -3.7870 H   0  0  0  0  0  0  0  0  0  0  0  0
   15.0220   -8.9660   -7.4350 H   0  0  0  0  0  0  0  0  0  0  0  0
   14.4960   -5.4430   -5.1210 H   0  0  0  0  0  0  0  0  0  0  0  0
   13.9650   -4.2070   -7.1310 H   0  0  0  0  0  0  0  0  0  0  0  0
   14.6110   -7.7070   -9.4430 H   0  0  0  0  0  0  0  0  0  0  0  0
   16.2130   -1.8390  -11.1370 H   0  0  0  0  0  0  0  0  0  0  0  0
   14.6000   -2.9890  -14.7540 H   0  0  0  0  0  0  0  0  0  0  0  0
   13.2670   -4.7920  -13.6140 H   0  0  0  0  0  0  0  0  0  0  0  0
   11.5580   -4.9710  -11.7110 H   0  0  0  0  0  0  0  0  0  0  0  0
    9.9190   -8.2430  -11.6050 H   0  0  0  0  0  0  0  0  0  0  0  0
    9.7960   -6.7550  -10.6500 H   0  0  0  0  0  0  0  0  0  0  0  0
   10.7420   -8.1430  -10.0840 H   0  0  0  0  0  0  0  0  0  0  0  0
   10.9840   -7.7130  -13.6000 H   0  0  0  0  0  0  0  0  0  0  0  0
   11.7540   -6.1230  -13.6980 H   0  0  0  0  0  0  0  0  0  0  0  0
   10.1630   -6.2460  -13.0400 H   0  0  0  0  0  0  0  0  0  0  0  0
   12.5550   -8.9280  -12.0660 H   0  0  0  0  0  0  0  0  0  0  0  0
   12.8500   -8.3430  -10.4430 H   0  0  0  0  0  0  0  0  0  0  0  0
   13.7760   -7.6600  -11.7630 H   0  0  0  0  0  0  0  0  0  0  0  0
   15.5790   -3.6360   -9.1080 H   0  0  0  0  0  0  0  0  0  0  0  0
  1  2  1  0  0  0  0
  1 12  1  0  0  0  0
  2  3  2  0  0  0  0
  2  6  1  0  0  0  0
  3  4  1  0  0  0  0
  3  7  1  0  0  0  0
  4  5  1  0  0  0  0
  4 12  2  0  0  0  0
  5 28  1  0  0  0  0
  5 29  1  0  0  0  0
  5 30  1  0  0  0  0
  6 31  1  0  0  0  0
  6 32  1  0  0  0  0
  6 33  1  0  0  0  0
  7  8  1  0  0  0  0
  7 13  2  0  0  0  0
  8 16  2  0  0  0  0
  8 34  1  0  0  0  0
  9 11  2  0  0  0  0
  9 15  1  0  0  0  0
  9 17  1  0  0  0  0
 10 17  1  0  0  0  0
 10 18  1  0  0  0  0
 10 19  2  0  0  0  0
 11 18  1  0  0  0  0
 11 23  1  0  0  0  0
 13 14  1  0  0  0  0
 13 35  1  0  0  0  0
 14 15  2  0  0  0  0
 14 36  1  0  0  0  0
 15 16  1  0  0  0  0
 16 37  1  0  0  0  0
 17 51  1  0  0  0  0
 18 22  2  0  0  0  0
 19 20  1  0  0  0  0
 19 38  1  0  0  0  0
 20 21  2  0  0  0  0
 21 22  1  0  0  0  0
 21 39  1  0  0  0  0
 22 40  1  0  0  0  0
 23 24  1  0  0  0  0
 23 41  1  0  0  0  0
 24 25  1  0  0  0  0
 24 26  1  0  0  0  0
 24 27  1  0  0  0  0
 25 42  1  0  0  0  0
 25 43  1  0  0  0  0
 25 44  1  0  0  0  0
 26 45  1  0  0  0  0
 26 46  1  0  0  0  0
 26 47  1  0  0  0  0
 27 48  1  0  0  0  0
 27 49  1  0  0  0  0
 27 50  1  0  0  0  0
M  CHG  1  18   1
M  END
> <rseq>
1

> <mseq>
1

> <S>
-6.412215

> <rmsd>
6.607313

> <rmsd_refine>
1.938509

> <E_conf>
12.06186

> <E_place>
-66.45166

> <E_score1>
-8.182319

> <E_refine>
-28.14572

> <E_score2>
-6.412215

$$$$
4wiv_ligand
  MOE2018           3D
4wiv_ligand
 51 54  0  0  0  0  0  0  0  0999 V2000
   17.5230    1.4780  -13.1730 O   0  0  0  0  0  0  0  0  0  0  0  0
   16.4180    0.7850  -12.9050 C   0  0  0  0  0  0  0  0  0  0  0  0
   16.7900   -0.4650  -12.5560 C   0  0  0  0  0  0  0  0  0  0  0  0
   18.1830   -0.4590  -12.6520 C   0  0  0  0  0  0  0  0  0  0  0  0
   19.1090   -1.6200  -12.3800 C   0  0  0  0  0  0  0  0  0  0  0  0
   15.0650    1.4400  -13.0260 C   0  0  0  0  0  0  0  0  0  0  0  0
   15.9340   -1.5840  -12.1820 C   0  0  0  0  0  0  0  0  0  0  0  0
   15.2620   -2.3190  -13.1620 C   0  0  0  0  0  0  0  0  0  0  0  0
   13.5900   -5.0180  -11.1660 C   0  0  0  0  0  0  0  0  0  0  0  0
   11.9790   -6.5180  -11.5230 C   0  0  0  0  0  0  0  0  0  0  0  0
   13.9020   -6.1570  -10.4660 C   0  0  0  0  0  0  0  0  0  0  0  0
   18.6010    0.7030  -13.0130 N   0  0  0  0  0  0  0  0  0  0  0  0
   15.7820   -1.9660  -10.8440 C   0  0  0  0  0  0  0  0  0  0  0  0
   15.0070   -3.0670  -10.4980 C   0  0  0  0  0  0  0  0  0  0  0  0
   14.3540   -3.8230  -11.4810 C   0  0  0  0  0  0  0  0  0  0  0  0
   14.4880   -3.4170  -12.8180 C   0  0  0  0  0  0  0  0  0  0  0  0
   12.3630   -5.2560  -11.7390 N   0  0  0  0  0  0  0  0  0  0  0  0
   12.9570   -7.1020  -10.7980 N   0  3  0  0  0  0  0  0  0  0  0  0
   10.8570   -7.2500  -11.9870 C   0  0  0  0  0  0  0  0  0  0  0  0
   10.8040   -8.5400  -11.8250 N   0  0  0  0  0  0  0  0  0  0  0  0
   11.8670   -9.1690  -11.1950 C   0  0  0  0  0  0  0  0  0  0  0  0
   12.9430   -8.4830  -10.6880 C   0  0  0  0  0  0  0  0  0  0  0  0
   15.0280   -6.4320   -9.6630 N   0  0  0  0  0  0  0  0  0  0  0  0
   15.0190   -6.6620   -8.2010 C   0  0  0  0  0  0  0  0  0  0  0  0
   14.1000   -5.6640   -7.5060 C   0  0  0  0  0  0  0  0  0  0  0  0
   14.6680   -8.1120   -7.8690 C   0  0  0  0  0  0  0  0  0  0  0  0
   16.4160   -6.3970   -7.6200 C   0  0  0  0  0  0  0  0  0  0  0  0
   20.0140   -1.4770  -12.9700 H   0  0  0  0  0  0  0  0  0  0  0  0
   18.6060   -2.5390  -12.6770 H   0  0  0  0  0  0  0  0  0  0  0  0
   19.3430   -1.6250  -11.3160 H   0  0  0  0  0  0  0  0  0  0  0  0
   14.3030    0.7080  -12.7660 H   0  0  0  0  0  0  0  0  0  0  0  0
   14.9420    1.7790  -14.0550 H   0  0  0  0  0  0  0  0  0  0  0  0
   15.0380    2.2880  -12.3420 H   0  0  0  0  0  0  0  0  0  0  0  0
   15.3570   -2.0410  -14.1810 H   0  0  0  0  0  0  0  0  0  0  0  0
   16.2730   -1.4110  -10.0860 H   0  0  0  0  0  0  0  0  0  0  0  0
   14.9150   -3.3380   -9.4790 H   0  0  0  0  0  0  0  0  0  0  0  0
   14.0020   -3.9640  -13.5850 H   0  0  0  0  0  0  0  0  0  0  0  0
   10.0700   -6.7470  -12.4870 H   0  0  0  0  0  0  0  0  0  0  0  0
   11.8200  -10.2250  -11.1330 H   0  0  0  0  0  0  0  0  0  0  0  0
   13.7960   -8.9200  -10.2380 H   0  0  0  0  0  0  0  0  0  0  0  0
   15.7440   -5.7090   -9.8240 H   0  0  0  0  0  0  0  0  0  0  0  0
   14.4290   -4.6410   -7.6810 H   0  0  0  0  0  0  0  0  0  0  0  0
   14.0760   -5.8520   -6.4320 H   0  0  0  0  0  0  0  0  0  0  0  0
   13.1150   -5.7900   -7.9150 H   0  0  0  0  0  0  0  0  0  0  0  0
   14.7250   -8.2800   -6.7920 H   0  0  0  0  0  0  0  0  0  0  0  0
   15.3580   -8.7920   -8.3700 H   0  0  0  0  0  0  0  0  0  0  0  0
   13.6600   -8.3230   -8.1950 H   0  0  0  0  0  0  0  0  0  0  0  0
   16.4110   -6.5480   -6.5390 H   0  0  0  0  0  0  0  0  0  0  0  0
   16.7080   -5.3680   -7.8180 H   0  0  0  0  0  0  0  0  0  0  0  0
   17.1500   -7.0740   -8.0500 H   0  0  0  0  0  0  0  0  0  0  0  0
   11.8360   -4.5850  -12.3290 H   0  0  0  0  0  0  0  0  0  0  0  0
  1  2  1  0  0  0  0
  1 12  1  0  0  0  0
  2  3  2  0  0  0  0
  2  6  1  0  0  0  0
  3  4  1  0  0  0  0
  3  7  1  0  0  0  0
  4  5  1  0  0  0  0
  4 12  2  0  0  0  0
  5 28  1  0  0  0  0
  5 29  1  0  0  0  0
  5 30  1  0  0  0  0
  6 31  1  0  0  0  0
  6 32  1  0  0  0  0
  6 33  1  0  0  0  0
  7  8  1  0  0  0  0
  7 13  2  0  0  0  0
  8 16  2  0  0  0  0
  8 34  1  0  0  0  0
  9 11  2  0  0  0  0
  9 15  1  0  0  0  0
  9 17  1  0  0  0  0
 10 17  1  0  0  0  0
 10 18  1  0  0  0  0
 10 19  2  0  0  0  0
 11 18  1  0  0  0  0
 11 23  1  0  0  0  0
 13 14  1  0  0  0  0
 13 35  1  0  0  0  0
 14 15  2  0  0  0  0
 14 36  1  0  0  0  0
 15 16  1  0  0  0  0
 16 37  1  0  0  0  0
 17 51  1  0  0  0  0
 18 22  2  0  0  0  0
 19 20  1  0  0  0  0
 19 38  1  0  0  0  0
 20 21  2  0  0  0  0
 21 22  1  0  0  0  0
 21 39  1  0  0  0  0
 22 40  1  0  0  0  0
 23 24  1  0  0  0  0
 23 41  1  0  0  0  0
 24 25  1  0  0  0  0
 24 26  1  0  0  0  0
 24 27  1  0  0  0  0
 25 42  1  0  0  0  0
 25 43  1  0  0  0  0
 25 44  1  0  0  0  0
 26 45  1  0  0  0  0
 26 46  1  0  0  0  0
 26 47  1  0  0  0  0
 27 48  1  0  0  0  0
 27 49  1  0  0  0  0
 27 50  1  0  0  0  0
M  CHG  1  18   1
M  END
> <rseq>
1

> <mseq>
1

> <S>
-6.409364

> <rmsd>
8.015315

> <rmsd_refine>
1.478941

> <E_conf>
-4.488541

> <E_place>
-56.79436

> <E_score1>
-8.756907

> <E_refine>
-29.61314

> <E_score2>
-6.409364

> <PLIF_pronum>
1

>  <PLIF_raw>
[[17,9,17,10,18,11,10,19,20,21,22,18,9,17,10,18,11],[683,768,768,768,768,768,1726,1726,1726,1726,1726,1726,1726,1726,1726,1726,1726],[82,87,87,87,87,87,146,146,146,146,146,146,146,146,146,146,146],[3,10,10,10,10,10,10,10,10,10,10,10,10,10,10,10,10],[2.9,0.8,0.8,0.8,0.8,0.8,1,1,1,1,1,1,0.7,0.7,0.7,0.7,0.7]]

> <FP:PLIF>
2 3 6 7 8

>  <PLIF_ligidx>
[17,17,[9,17,10,18,11],[10,19,20,21,22,18,9,17,10,18,11],[10,19,20,21,22,18]]

$$$$
4wiv_ligand
  MOE2018           3D
4wiv_ligand
 51 54  0  0  0  0  0  0  0  0999 V2000
   11.2330   -6.7370  -12.2880 O   0  0  0  0  0  0  0  0  0  0  0  0
   11.8640   -7.5440  -11.4460 C   0  0  0  0  0  0  0  0  0  0  0  0
   12.8900   -6.8570  -10.8960 C   0  0  0  0  0  0  0  0  0  0  0  0
   12.8360   -5.6010  -11.5010 C   0  0  0  0  0  0  0  0  0  0  0  0
   13.8080   -4.4590  -11.3160 C   0  0  0  0  0  0  0  0  0  0  0  0
   11.3690   -8.9520  -11.2410 C   0  0  0  0  0  0  0  0  0  0  0  0
   13.7930   -7.3390   -9.8580 C   0  0  0  0  0  0  0  0  0  0  0  0
   14.4490   -8.5640   -9.9940 C   0  0  0  0  0  0  0  0  0  0  0  0
   15.8010   -9.1240   -6.5380 C   0  0  0  0  0  0  0  0  0  0  0  0
   17.0380  -10.6470   -5.4690 C   0  0  0  0  0  0  0  0  0  0  0  0
   15.4220   -9.1460   -5.2200 C   0  0  0  0  0  0  0  0  0  0  0  0
   11.8410   -5.5510  -12.3150 N   0  0  0  0  0  0  0  0  0  0  0  0
   13.9640   -6.6270   -8.6650 C   0  0  0  0  0  0  0  0  0  0  0  0
   14.6650   -7.1750   -7.6010 C   0  0  0  0  0  0  0  0  0  0  0  0
   15.2290   -8.4530   -7.6950 C   0  0  0  0  0  0  0  0  0  0  0  0
   15.1520   -9.1100   -8.9330 C   0  0  0  0  0  0  0  0  0  0  0  0
   16.8410  -10.0210   -6.6380 N   0  0  0  0  0  0  0  0  0  0  0  0
   16.1440  -10.1360   -4.6000 N   0  3  0  0  0  0  0  0  0  0  0  0
   17.9320  -11.6810   -5.0910 C   0  0  0  0  0  0  0  0  0  0  0  0
   17.8610  -12.2090   -3.9040 N   0  0  0  0  0  0  0  0  0  0  0  0
   16.8860  -11.7450   -3.0290 C   0  0  0  0  0  0  0  0  0  0  0  0
   16.0210  -10.7320   -3.3560 C   0  0  0  0  0  0  0  0  0  0  0  0
   14.4460   -8.3960   -4.5380 N   0  0  0  0  0  0  0  0  0  0  0  0
   14.8520   -7.3100   -3.6180 C   0  0  0  0  0  0  0  0  0  0  0  0
   13.7850   -6.2120   -3.7290 C   0  0  0  0  0  0  0  0  0  0  0  0
   14.8700   -7.7900   -2.1570 C   0  0  0  0  0  0  0  0  0  0  0  0
   16.2230   -6.7010   -3.9740 C   0  0  0  0  0  0  0  0  0  0  0  0
   13.4600   -3.5950  -11.8780 H   0  0  0  0  0  0  0  0  0  0  0  0
   14.7660   -4.7860  -11.7100 H   0  0  0  0  0  0  0  0  0  0  0  0
   13.8810   -4.2150  -10.2580 H   0  0  0  0  0  0  0  0  0  0  0  0
   11.1480   -9.0610  -10.1830 H   0  0  0  0  0  0  0  0  0  0  0  0
   12.1480   -9.6460  -11.5550 H   0  0  0  0  0  0  0  0  0  0  0  0
   10.4700   -9.0930  -11.8410 H   0  0  0  0  0  0  0  0  0  0  0  0
   14.3870   -9.0950  -10.9090 H   0  0  0  0  0  0  0  0  0  0  0  0
   13.5190   -5.6730   -8.5550 H   0  0  0  0  0  0  0  0  0  0  0  0
   14.7490   -6.6250   -6.7030 H   0  0  0  0  0  0  0  0  0  0  0  0
   15.6010  -10.0590   -9.0540 H   0  0  0  0  0  0  0  0  0  0  0  0
   18.6560  -12.0320   -5.7810 H   0  0  0  0  0  0  0  0  0  0  0  0
   16.8270  -12.2210   -2.0840 H   0  0  0  0  0  0  0  0  0  0  0  0
   15.2390  -10.3670   -2.7430 H   0  0  0  0  0  0  0  0  0  0  0  0
   13.7820   -7.9860   -5.2110 H   0  0  0  0  0  0  0  0  0  0  0  0
   14.0180   -5.3850   -3.0560 H   0  0  0  0  0  0  0  0  0  0  0  0
   12.8110   -6.6190   -3.4610 H   0  0  0  0  0  0  0  0  0  0  0  0
   13.7400   -5.8260   -4.7470 H   0  0  0  0  0  0  0  0  0  0  0  0
   14.9270   -6.9360   -1.4820 H   0  0  0  0  0  0  0  0  0  0  0  0
   15.7430   -8.4130   -1.9710 H   0  0  0  0  0  0  0  0  0  0  0  0
   13.9640   -8.3530   -1.9310 H   0  0  0  0  0  0  0  0  0  0  0  0
   16.4380   -5.8610   -3.3120 H   0  0  0  0  0  0  0  0  0  0  0  0
   16.2300   -6.3410   -5.0020 H   0  0  0  0  0  0  0  0  0  0  0  0
   17.0150   -7.4410   -3.8500 H   0  0  0  0  0  0  0  0  0  0  0  0
   17.3770  -10.2350   -7.4960 H   0  0  0  0  0  0  0  0  0  0  0  0
  1  2  1  0  0  0  0
  1 12  1  0  0  0  0
  2  3  2  0  0  0  0
  2  6  1  0  0  0  0
  3  4  1  0  0  0  0
  3  7  1  0  0  0  0
  4  5  1  0  0  0  0
  4 12  2  0  0  0  0
  5 28  1  0  0  0  0
  5 29  1  0  0  0  0
  5 30  1  0  0  0  0
  6 31  1  0  0  0  0
  6 32  1  0  0  0  0
  6 33  1  0  0  0  0
  7  8  1  0  0  0  0
  7 13  2  0  0  0  0
  8 16  2  0  0  0  0
  8 34  1  0  0  0  0
  9 11  2  0  0  0  0
  9 15  1  0  0  0  0
  9 17  1  0  0  0  0
 10 17  1  0  0  0  0
 10 18  1  0  0  0  0
 10 19  2  0  0  0  0
 11 18  1  0  0  0  0
 11 23  1  0  0  0  0
 13 14  1  0  0  0  0
 13 35  1  0  0  0  0
 14 15  2  0  0  0  0
 14 36  1  0  0  0  0
 15 16  1  0  0  0  0
 16 37  1  0  0  0  0
 17 51  1  0  0  0  0
 18 22  2  0  0  0  0
 19 20  1  0  0  0  0
 19 38  1  0  0  0  0
 20 21  2  0  0  0  0
 21 22  1  0  0  0  0
 21 39  1  0  0  0  0
 22 40  1  0  0  0  0
 23 24  1  0  0  0  0
 23 41  1  0  0  0  0
 24 25  1  0  0  0  0
 24 26  1  0  0  0  0
 24 27  1  0  0  0  0
 25 42  1  0  0  0  0
 25 43  1  0  0  0  0
 25 44  1  0  0  0  0
 26 45  1  0  0  0  0
 26 46  1  0  0  0  0
 26 47  1  0  0  0  0
 27 48  1  0  0  0  0
 27 49  1  0  0  0  0
 27 50  1  0  0  0  0
M  CHG  1  18   1
M  END
> <rseq>
1

> <mseq>
1

> <S>
-6.341028

> <rmsd>
6.923542

> <rmsd_refine>
1.998324

> <E_conf>
-7.459869

> <E_place>
-29.49574

> <E_score1>
-8.71063

> <E_refine>
-30.7697

> <E_score2>
-6.341028

> <PLIF_pronum>
1

>  <PLIF_raw>
[[18,23,7,13,14,15,16,8],[1704,1704,1657,1657,1657,1657,1657,1657],[144,144,140,140,140,140,140,140],[7,7,10,10,10,10,10,10],[0.8857869598,0.8164061804,0.5,0.5,0.5,0.5,0.5,0.5]]

> <FP:PLIF>
9 10

>  <PLIF_ligidx>
[[7,13,14,15,16,8],[18,23]]

$$$$
4wiv_ligand
  MOE2018           3D
4wiv_ligand
 51 54  0  0  0  0  0  0  0  0999 V2000
   16.6910    2.4280  -14.9590 O   0  0  0  0  0  0  0  0  0  0  0  0
   15.9590    1.6840  -14.1350 C   0  0  0  0  0  0  0  0  0  0  0  0
   16.4460    0.4250  -14.1690 C   0  0  0  0  0  0  0  0  0  0  0  0
   17.5030    0.4830  -15.0810 C   0  0  0  0  0  0  0  0  0  0  0  0
   18.3810   -0.6640  -15.5090 C   0  0  0  0  0  0  0  0  0  0  0  0
   14.8090    2.2950  -13.3730 C   0  0  0  0  0  0  0  0  0  0  0  0
   15.9570   -0.7250  -13.4140 C   0  0  0  0  0  0  0  0  0  0  0  0
   15.4890   -1.8730  -14.0590 C   0  0  0  0  0  0  0  0  0  0  0  0
   14.2910   -4.0030  -11.2000 C   0  0  0  0  0  0  0  0  0  0  0  0
   13.1940   -5.9430  -11.0230 C   0  0  0  0  0  0  0  0  0  0  0  0
   14.6200   -4.5790   -9.9970 C   0  0  0  0  0  0  0  0  0  0  0  0
   17.6350    1.6800  -15.5370 N   0  0  0  0  0  0  0  0  0  0  0  0
   15.9190   -0.6970  -12.0180 C   0  0  0  0  0  0  0  0  0  0  0  0
   15.3830   -1.7530  -11.2920 C   0  0  0  0  0  0  0  0  0  0  0  0
   14.8520   -2.8790  -11.9380 C   0  0  0  0  0  0  0  0  0  0  0  0
   14.9260   -2.9170  -13.3400 C   0  0  0  0  0  0  0  0  0  0  0  0
   13.3370   -4.8300  -11.7550 N   0  0  0  0  0  0  0  0  0  0  0  0
   14.0230   -5.8190   -9.9680 N   0  3  0  0  0  0  0  0  0  0  0  0
   12.4440   -7.1290  -11.2430 C   0  0  0  0  0  0  0  0  0  0  0  0
   12.6360   -8.1770  -10.4940 N   0  0  0  0  0  0  0  0  0  0  0  0
   13.5730   -8.0940   -9.4710 C   0  0  0  0  0  0  0  0  0  0  0  0
   14.2680   -6.9440   -9.1940 C   0  0  0  0  0  0  0  0  0  0  0  0
   15.5090   -4.1480   -8.9900 N   0  0  0  0  0  0  0  0  0  0  0  0
   15.0390   -3.6730   -7.6690 C   0  0  0  0  0  0  0  0  0  0  0  0
   13.9120   -2.6360   -7.8030 C   0  0  0  0  0  0  0  0  0  0  0  0
   14.5690   -4.8200   -6.7630 C   0  0  0  0  0  0  0  0  0  0  0  0
   16.2320   -2.9880   -6.9860 C   0  0  0  0  0  0  0  0  0  0  0  0
   18.7080   -1.1940  -14.6150 H   0  0  0  0  0  0  0  0  0  0  0  0
   19.2400   -0.2740  -16.0570 H   0  0  0  0  0  0  0  0  0  0  0  0
   17.7800   -1.3060  -16.1510 H   0  0  0  0  0  0  0  0  0  0  0  0
   14.1200    1.4960  -13.1080 H   0  0  0  0  0  0  0  0  0  0  0  0
   14.3150    3.0200  -14.0200 H   0  0  0  0  0  0  0  0  0  0  0  0
   15.2070    2.7800  -12.4820 H   0  0  0  0  0  0  0  0  0  0  0  0
   15.5530   -1.9430  -15.1130 H   0  0  0  0  0  0  0  0  0  0  0  0
   16.3080    0.1470  -11.5080 H   0  0  0  0  0  0  0  0  0  0  0  0
   15.3780   -1.6980  -10.2380 H   0  0  0  0  0  0  0  0  0  0  0  0
   14.5570   -3.7590  -13.8660 H   0  0  0  0  0  0  0  0  0  0  0  0
   11.7430   -7.1690  -12.0370 H   0  0  0  0  0  0  0  0  0  0  0  0
   13.7380   -8.9720   -8.9010 H   0  0  0  0  0  0  0  0  0  0  0  0
   15.0070   -6.8350   -8.4430 H   0  0  0  0  0  0  0  0  0  0  0  0
   16.1300   -3.4110   -9.3560 H   0  0  0  0  0  0  0  0  0  0  0  0
   13.6160   -2.2740   -6.8170 H   0  0  0  0  0  0  0  0  0  0  0  0
   13.0460   -3.0880   -8.2720 H   0  0  0  0  0  0  0  0  0  0  0  0
   14.2380   -1.7860   -8.3970 H   0  0  0  0  0  0  0  0  0  0  0  0
   14.3140   -4.4350   -5.7750 H   0  0  0  0  0  0  0  0  0  0  0  0
   15.3620   -5.5590   -6.6500 H   0  0  0  0  0  0  0  0  0  0  0  0
   13.6800   -5.2890   -7.1790 H   0  0  0  0  0  0  0  0  0  0  0  0
   15.9400   -2.5980   -6.0100 H   0  0  0  0  0  0  0  0  0  0  0  0
   16.5940   -2.1620   -7.6000 H   0  0  0  0  0  0  0  0  0  0  0  0
   17.0440   -3.7030   -6.8470 H   0  0  0  0  0  0  0  0  0  0  0  0
   12.8260   -4.6500  -12.6400 H   0  0  0  0  0  0  0  0  0  0  0  0
  1  2  1  0  0  0  0
  1 12  1  0  0  0  0
  2  3  2  0  0  0  0
  2  6  1  0  0  0  0
  3  4  1  0  0  0  0
  3  7  1  0  0  0  0
  4  5  1  0  0  0  0
  4 12  2  0  0  0  0
  5 28  1  0  0  0  0
  5 29  1  0  0  0  0
  5 30  1  0  0  0  0
  6 31  1  0  0  0  0
  6 32  1  0  0  0  0
  6 33  1  0  0  0  0
  7  8  1  0  0  0  0
  7 13  2  0  0  0  0
  8 16  2  0  0  0  0
  8 34  1  0  0  0  0
  9 11  2  0  0  0  0
  9 15  1  0  0  0  0
  9 17  1  0  0  0  0
 10 17  1  0  0  0  0
 10 18  1  0  0  0  0
 10 19  2  0  0  0  0
 11 18  1  0  0  0  0
 11 23  1  0  0  0  0
 13 14  1  0  0  0  0
 13 35  1  0  0  0  0
 14 15  2  0  0  0  0
 14 36  1  0  0  0  0
 15 16  1  0  0  0  0
 16 37  1  0  0  0  0
 17 51  1  0  0  0  0
 18 22  2  0  0  0  0
 19 20  1  0  0  0  0
 19 38  1  0  0  0  0
 20 21  2  0  0  0  0
 21 22  1  0  0  0  0
 21 39  1  0  0  0  0
 22 40  1  0  0  0  0
 23 24  1  0  0  0  0
 23 41  1  0  0  0  0
 24 25  1  0  0  0  0
 24 26  1  0  0  0  0
 24 27  1  0  0  0  0
 25 42  1  0  0  0  0
 25 43  1  0  0  0  0
 25 44  1  0  0  0  0
 26 45  1  0  0  0  0
 26 46  1  0  0  0  0
 26 47  1  0  0  0  0
 27 48  1  0  0  0  0
 27 49  1  0  0  0  0
 27 50  1  0  0  0  0
M  CHG  1  18   1
M  END
> <rseq>
1

> <mseq>
1

> <S>
-6.30642

> <rmsd>
7.69536

> <rmsd_refine>
3.042197

> <E_conf>
-7.568367

> <E_place>
-51.79477

> <E_score1>
-7.755713

> <E_refine>
-34.24418

> <E_score2>
-6.30642

> <PLIF_pronum>
1

>  <PLIF_raw>
[[17,9,17,10,18,11],[683,768,768,768,768,768],[82,87,87,87,87,87],[3,10,10,10,10,10],[2,0.5,0.5,0.5,0.5,0.5]]

> <FP:PLIF>
2 3 6

>  <PLIF_ligidx>
[17,17,[9,17,10,18,11]]

$$$$
4wiv_ligand
  MOE2018           3D
4wiv_ligand
 51 54  0  0  0  0  0  0  0  0999 V2000
    9.4240   -8.1170  -15.0850 O   0  0  0  0  0  0  0  0  0  0  0  0
   10.0510   -8.4620  -13.9730 C   0  0  0  0  0  0  0  0  0  0  0  0
   10.8310   -7.4330  -13.5770 C   0  0  0  0  0  0  0  0  0  0  0  0
   10.7200   -6.5200  -14.6420 C   0  0  0  0  0  0  0  0  0  0  0  0
   11.5900   -5.3410  -14.9950 C   0  0  0  0  0  0  0  0  0  0  0  0
    9.8960   -9.8670  -13.4810 C   0  0  0  0  0  0  0  0  0  0  0  0
   11.6580   -7.3740  -12.3530 C   0  0  0  0  0  0  0  0  0  0  0  0
   12.3020   -8.5180  -11.8570 C   0  0  0  0  0  0  0  0  0  0  0  0
   14.2270   -7.2710   -8.8800 C   0  0  0  0  0  0  0  0  0  0  0  0
   15.5090   -8.2600   -7.3260 C   0  0  0  0  0  0  0  0  0  0  0  0
   14.3890   -6.4060   -7.8230 C   0  0  0  0  0  0  0  0  0  0  0  0
    9.8540   -6.9290  -15.4970 N   0  0  0  0  0  0  0  0  0  0  0  0
   11.8880   -6.1720  -11.6690 C   0  0  0  0  0  0  0  0  0  0  0  0
   12.7440   -6.1160  -10.5710 C   0  0  0  0  0  0  0  0  0  0  0  0
   13.3880   -7.2660  -10.0810 C   0  0  0  0  0  0  0  0  0  0  0  0
   13.1440   -8.4680  -10.7600 C   0  0  0  0  0  0  0  0  0  0  0  0
   14.9940   -8.3750   -8.5560 N   0  0  0  0  0  0  0  0  0  0  0  0
   15.0970   -7.0720   -6.8500 N   0  3  0  0  0  0  0  0  0  0  0  0
   16.3040   -9.1380   -6.5450 C   0  0  0  0  0  0  0  0  0  0  0  0
   16.5940   -8.8380   -5.3120 N   0  0  0  0  0  0  0  0  0  0  0  0
   16.0940   -7.6580   -4.7820 C   0  0  0  0  0  0  0  0  0  0  0  0
   15.3400   -6.7780   -5.5170 C   0  0  0  0  0  0  0  0  0  0  0  0
   13.8980   -5.1100   -7.5810 N   0  0  0  0  0  0  0  0  0  0  0  0
   14.7600   -3.9130   -7.6910 C   0  0  0  0  0  0  0  0  0  0  0  0
   13.9670   -2.7220   -7.1310 C   0  0  0  0  0  0  0  0  0  0  0  0
   16.0860   -4.0170   -6.9160 C   0  0  0  0  0  0  0  0  0  0  0  0
   15.0710   -3.6380   -9.1680 C   0  0  0  0  0  0  0  0  0  0  0  0
   10.9820   -4.5110  -15.3150 H   0  0  0  0  0  0  0  0  0  0  0  0
   12.1780   -5.6210  -15.8640 H   0  0  0  0  0  0  0  0  0  0  0  0
   12.2560   -5.1050  -14.1710 H   0  0  0  0  0  0  0  0  0  0  0  0
   10.0940   -9.8760  -12.4160 H   0  0  0  0  0  0  0  0  0  0  0  0
    8.8890  -10.1860  -13.7010 H   0  0  0  0  0  0  0  0  0  0  0  0
   10.6040  -10.4950  -14.0150 H   0  0  0  0  0  0  0  0  0  0  0  0
   12.1870   -9.4460  -12.3490 H   0  0  0  0  0  0  0  0  0  0  0  0
   11.4050   -5.2880  -11.9960 H   0  0  0  0  0  0  0  0  0  0  0  0
   12.8890   -5.1880  -10.0900 H   0  0  0  0  0  0  0  0  0  0  0  0
   13.6040   -9.3650  -10.4390 H   0  0  0  0  0  0  0  0  0  0  0  0
   16.6590  -10.0440   -6.9630 H   0  0  0  0  0  0  0  0  0  0  0  0
   16.3150   -7.4630   -3.7630 H   0  0  0  0  0  0  0  0  0  0  0  0
   14.9070   -5.8810   -5.1560 H   0  0  0  0  0  0  0  0  0  0  0  0
   13.0830   -4.9240   -8.1830 H   0  0  0  0  0  0  0  0  0  0  0  0
   14.5580   -1.8090   -7.2040 H   0  0  0  0  0  0  0  0  0  0  0  0
   13.7200   -2.8990   -6.0830 H   0  0  0  0  0  0  0  0  0  0  0  0
   13.0410   -2.5860   -7.6890 H   0  0  0  0  0  0  0  0  0  0  0  0
   16.6850   -3.1210   -7.0860 H   0  0  0  0  0  0  0  0  0  0  0  0
   16.6630   -4.8780   -7.2510 H   0  0  0  0  0  0  0  0  0  0  0  0
   15.8980   -4.0870   -5.8460 H   0  0  0  0  0  0  0  0  0  0  0  0
   15.7400   -2.7810   -9.2610 H   0  0  0  0  0  0  0  0  0  0  0  0
   14.1600   -3.4160   -9.7170 H   0  0  0  0  0  0  0  0  0  0  0  0
   15.5460   -4.5110   -9.6060 H   0  0  0  0  0  0  0  0  0  0  0  0
   15.1240   -9.2170   -9.1420 H   0  0  0  0  0  0  0  0  0  0  0  0
  1  2  1  0  0  0  0
  1 12  1  0  0  0  0
  2  3  2  0  0  0  0
  2  6  1  0  0  0  0
  3  4  1  0  0  0  0
  3  7  1  0  0  0  0
  4  5  1  0  0  0  0
  4 12  2  0  0  0  0
  5 28  1  0  0  0  0
  5 29  1  0  0  0  0
  5 30  1  0  0  0  0
  6 31  1  0  0  0  0
  6 32  1  0  0  0  0
  6 33  1  0  0  0  0
  7  8  1  0  0  0  0
  7 13  2  0  0  0  0
  8 16  2  0  0  0  0
  8 34  1  0  0  0  0
  9 11  2  0  0  0  0
  9 15  1  0  0  0  0
  9 17  1  0  0  0  0
 10 17  1  0  0  0  0
 10 18  1  0  0  0  0
 10 19  2  0  0  0  0
 11 18  1  0  0  0  0
 11 23  1  0  0  0  0
 13 14  1  0  0  0  0
 13 35  1  0  0  0  0
 14 15  2  0  0  0  0
 14 36  1  0  0  0  0
 15 16  1  0  0  0  0
 16 37  1  0  0  0  0
 17 51  1  0  0  0  0
 18 22  2  0  0  0  0
 19 20  1  0  0  0  0
 19 38  1  0  0  0  0
 20 21  2  0  0  0  0
 21 22  1  0  0  0  0
 21 39  1  0  0  0  0
 22 40  1  0  0  0  0
 23 24  1  0  0  0  0
 23 41  1  0  0  0  0
 24 25  1  0  0  0  0
 24 26  1  0  0  0  0
 24 27  1  0  0  0  0
 25 42  1  0  0  0  0
 25 43  1  0  0  0  0
 25 44  1  0  0  0  0
 26 45  1  0  0  0  0
 26 46  1  0  0  0  0
 26 47  1  0  0  0  0
 27 48  1  0  0  0  0
 27 49  1  0  0  0  0
 27 50  1  0  0  0  0
M  CHG  1  18   1
M  END
> <rseq>
1

> <mseq>
1

> <S>
-6.303846

> <rmsd>
5.42875

> <rmsd_refine>
1.633487

> <E_conf>
-0.9379073

> <E_place>
-62.06181

> <E_score1>
-8.627556

> <E_refine>
-24.73394

> <E_score2>
-6.303846

$$$$
4wiv_ligand
  MOE2018           3D
4wiv_ligand
 51 54  0  0  0  0  0  0  0  0999 V2000
    9.9070   -8.7630  -14.2360 O   0  0  0  0  0  0  0  0  0  0  0  0
   10.3930   -7.6100  -13.7910 C   0  0  0  0  0  0  0  0  0  0  0  0
   11.1860   -7.8620  -12.7140 C   0  0  0  0  0  0  0  0  0  0  0  0
   11.1490   -9.2630  -12.6170 C   0  0  0  0  0  0  0  0  0  0  0  0
   11.8850  -10.1510  -11.6620 C   0  0  0  0  0  0  0  0  0  0  0  0
   10.0260   -6.3810  -14.5850 C   0  0  0  0  0  0  0  0  0  0  0  0
   11.9890   -6.9040  -11.8990 C   0  0  0  0  0  0  0  0  0  0  0  0
   12.6010   -7.2350  -10.6770 C   0  0  0  0  0  0  0  0  0  0  0  0
   14.6000   -4.1200   -9.8420 C   0  0  0  0  0  0  0  0  0  0  0  0
   15.8540   -3.3520   -8.1530 C   0  0  0  0  0  0  0  0  0  0  0  0
   15.0510   -2.8570  -10.1670 C   0  0  0  0  0  0  0  0  0  0  0  0
   10.3790   -9.7700  -13.5130 N   0  0  0  0  0  0  0  0  0  0  0  0
   12.2550   -5.6170  -12.3770 C   0  0  0  0  0  0  0  0  0  0  0  0
   13.1020   -4.7420  -11.7180 C   0  0  0  0  0  0  0  0  0  0  0  0
   13.7230   -5.0750  -10.5180 C   0  0  0  0  0  0  0  0  0  0  0  0
   13.4500   -6.3540  -10.0110 C   0  0  0  0  0  0  0  0  0  0  0  0
   15.1350   -4.3900   -8.6000 N   0  0  0  0  0  0  0  0  0  0  0  0
   15.8070   -2.4050   -9.1110 N   0  3  0  0  0  0  0  0  0  0  0  0
   16.5640   -3.1490   -6.9420 C   0  0  0  0  0  0  0  0  0  0  0  0
   17.1820   -2.0260   -6.7230 N   0  0  0  0  0  0  0  0  0  0  0  0
   17.1280   -1.0380   -7.6950 C   0  0  0  0  0  0  0  0  0  0  0  0
   16.4530   -1.2010   -8.8780 C   0  0  0  0  0  0  0  0  0  0  0  0
   14.7470   -1.9870  -11.2370 N   0  0  0  0  0  0  0  0  0  0  0  0
   15.6380   -1.6840  -12.3860 C   0  0  0  0  0  0  0  0  0  0  0  0
   15.4590   -0.1990  -12.7320 C   0  0  0  0  0  0  0  0  0  0  0  0
   17.1360   -1.9400  -12.1620 C   0  0  0  0  0  0  0  0  0  0  0  0
   15.2050   -2.5470  -13.5840 C   0  0  0  0  0  0  0  0  0  0  0  0
   11.7680  -11.1910  -11.9690 H   0  0  0  0  0  0  0  0  0  0  0  0
   11.4030   -9.9800  -10.7100 H   0  0  0  0  0  0  0  0  0  0  0  0
   12.9370   -9.8640  -11.6490 H   0  0  0  0  0  0  0  0  0  0  0  0
    9.8210   -5.5910  -13.8720 H   0  0  0  0  0  0  0  0  0  0  0  0
    9.1450   -6.5960  -15.1890 H   0  0  0  0  0  0  0  0  0  0  0  0
   10.8650   -6.1210  -15.2310 H   0  0  0  0  0  0  0  0  0  0  0  0
   12.4220   -8.1690  -10.2250 H   0  0  0  0  0  0  0  0  0  0  0  0
   11.8650   -5.3140  -13.3040 H   0  0  0  0  0  0  0  0  0  0  0  0
   13.2900   -3.8040  -12.1500 H   0  0  0  0  0  0  0  0  0  0  0  0
   13.8900   -6.6640   -9.0980 H   0  0  0  0  0  0  0  0  0  0  0  0
   16.5910   -3.9160   -6.2110 H   0  0  0  0  0  0  0  0  0  0  0  0
   17.6380   -0.1330   -7.4830 H   0  0  0  0  0  0  0  0  0  0  0  0
   16.3780   -0.4800   -9.6500 H   0  0  0  0  0  0  0  0  0  0  0  0
   13.8330   -2.2280  -11.6470 H   0  0  0  0  0  0  0  0  0  0  0  0
   15.9220    0.4220  -11.9650 H   0  0  0  0  0  0  0  0  0  0  0  0
   14.4010    0.0520  -12.7840 H   0  0  0  0  0  0  0  0  0  0  0  0
   15.9290    0.0290  -13.6900 H   0  0  0  0  0  0  0  0  0  0  0  0
   17.6970   -1.6370  -13.0470 H   0  0  0  0  0  0  0  0  0  0  0  0
   17.3150   -2.9980  -12.0120 H   0  0  0  0  0  0  0  0  0  0  0  0
   17.5160   -1.3700  -11.3180 H   0  0  0  0  0  0  0  0  0  0  0  0
   15.7780   -2.2800  -14.4730 H   0  0  0  0  0  0  0  0  0  0  0  0
   14.1480   -2.4000  -13.7950 H   0  0  0  0  0  0  0  0  0  0  0  0
   15.3750   -3.6020  -13.3670 H   0  0  0  0  0  0  0  0  0  0  0  0
   14.9980   -5.2620   -8.0600 H   0  0  0  0  0  0  0  0  0  0  0  0
  1  2  1  0  0  0  0
  1 12  1  0  0  0  0
  2  3  2  0  0  0  0
  2  6  1  0  0  0  0
  3  4  1  0  0  0  0
  3  7  1  0  0  0  0
  4  5  1  0  0  0  0
  4 12  2  0  0  0  0
  5 28  1  0  0  0  0
  5 29  1  0  0  0  0
  5 30  1  0  0  0  0
  6 31  1  0  0  0  0
  6 32  1  0  0  0  0
  6 33  1  0  0  0  0
  7  8  1  0  0  0  0
  7 13  2  0  0  0  0
  8 16  2  0  0  0  0
  8 34  1  0  0  0  0
  9 11  2  0  0  0  0
  9 15  1  0  0  0  0
  9 17  1  0  0  0  0
 10 17  1  0  0  0  0
 10 18  1  0  0  0  0
 10 19  2  0  0  0  0
 11 18  1  0  0  0  0
 11 23  1  0  0  0  0
 13 14  1  0  0  0  0
 13 35  1  0  0  0  0
 14 15  2  0  0  0  0
 14 36  1  0  0  0  0
 15 16  1  0  0  0  0
 16 37  1  0  0  0  0
 17 51  1  0  0  0  0
 18 22  2  0  0  0  0
 19 20  1  0  0  0  0
 19 38  1  0  0  0  0
 20 21  2  0  0  0  0
 21 22  1  0  0  0  0
 21 39  1  0  0  0  0
 22 40  1  0  0  0  0
 23 24  1  0  0  0  0
 23 41  1  0  0  0  0
 24 25  1  0  0  0  0
 24 26  1  0  0  0  0
 24 27  1  0  0  0  0
 25 42  1  0  0  0  0
 25 43  1  0  0  0  0
 25 44  1  0  0  0  0
 26 45  1  0  0  0  0
 26 46  1  0  0  0  0
 26 47  1  0  0  0  0
 27 48  1  0  0  0  0
 27 49  1  0  0  0  0
 27 50  1  0  0  0  0
M  CHG  1  18   1
M  END
> <rseq>
1

> <mseq>
1

> <S>
-6.158481

> <rmsd>
4.374336

> <rmsd_refine>
1.659822

> <E_conf>
-0.8184108

> <E_place>
-75.5722

> <E_score1>
-10.64917

> <E_refine>
-25.31573

> <E_score2>
-6.158481

$$$$
4wiv_ligand
  MOE2018           3D
4wiv_ligand
 51 54  0  0  0  0  0  0  0  0999 V2000
   15.2520   -8.7340   -2.6480 O   0  0  0  0  0  0  0  0  0  0  0  0
   14.6670   -7.8430   -3.4400 C   0  0  0  0  0  0  0  0  0  0  0  0
   15.1680   -7.9980   -4.6870 C   0  0  0  0  0  0  0  0  0  0  0  0
   16.0930   -9.0450   -4.5600 C   0  0  0  0  0  0  0  0  0  0  0  0
   16.9730   -9.6540   -5.6320 C   0  0  0  0  0  0  0  0  0  0  0  0
   13.6520   -6.8910   -2.8550 C   0  0  0  0  0  0  0  0  0  0  0  0
   14.8280   -7.2290   -5.8890 C   0  0  0  0  0  0  0  0  0  0  0  0
   14.7710   -7.8490   -7.1420 C   0  0  0  0  0  0  0  0  0  0  0  0
   14.1320   -4.9890   -9.4680 C   0  0  0  0  0  0  0  0  0  0  0  0
   14.8630   -3.4890  -10.9390 C   0  0  0  0  0  0  0  0  0  0  0  0
   13.4260   -5.1720  -10.6340 C   0  0  0  0  0  0  0  0  0  0  0  0
   16.1240   -9.4660   -3.3440 N   0  0  0  0  0  0  0  0  0  0  0  0
   14.5710   -5.8510   -5.8340 C   0  0  0  0  0  0  0  0  0  0  0  0
   14.2880   -5.1260   -6.9840 C   0  0  0  0  0  0  0  0  0  0  0  0
   14.2690   -5.7480   -8.2400 C   0  0  0  0  0  0  0  0  0  0  0  0
   14.5070   -7.1240   -8.2910 C   0  0  0  0  0  0  0  0  0  0  0  0
   14.9390   -3.8980   -9.6720 N   0  0  0  0  0  0  0  0  0  0  0  0
   14.0060   -4.3220  -11.5710 N   0  3  0  0  0  0  0  0  0  0  0  0
   15.5490   -2.4460  -11.6130 C   0  0  0  0  0  0  0  0  0  0  0  0
   15.4290   -2.3030  -12.8980 N   0  0  0  0  0  0  0  0  0  0  0  0
   14.6150   -3.1900  -13.5780 C   0  0  0  0  0  0  0  0  0  0  0  0
   13.9150   -4.1880  -12.9470 C   0  0  0  0  0  0  0  0  0  0  0  0
   12.1720   -5.8390  -10.7910 N   0  0  0  0  0  0  0  0  0  0  0  0
   11.8210   -7.0480  -11.5720 C   0  0  0  0  0  0  0  0  0  0  0  0
   10.6350   -7.7720  -10.9060 C   0  0  0  0  0  0  0  0  0  0  0  0
   11.1680   -6.6780  -12.9270 C   0  0  0  0  0  0  0  0  0  0  0  0
   12.9480   -8.0950  -11.4960 C   0  0  0  0  0  0  0  0  0  0  0  0
   17.8140  -10.1540   -5.1510 H   0  0  0  0  0  0  0  0  0  0  0  0
   17.3360   -8.8570   -6.2810 H   0  0  0  0  0  0  0  0  0  0  0  0
   16.3810  -10.3780   -6.1910 H   0  0  0  0  0  0  0  0  0  0  0  0
   14.1640   -5.9620   -2.6010 H   0  0  0  0  0  0  0  0  0  0  0  0
   13.2370   -7.3460   -1.9560 H   0  0  0  0  0  0  0  0  0  0  0  0
   12.8740   -6.7170   -3.5960 H   0  0  0  0  0  0  0  0  0  0  0  0
   14.9460   -8.8880   -7.2220 H   0  0  0  0  0  0  0  0  0  0  0  0
   14.6070   -5.3470   -4.9030 H   0  0  0  0  0  0  0  0  0  0  0  0
   14.1040   -4.0840   -6.9110 H   0  0  0  0  0  0  0  0  0  0  0  0
   14.5290   -7.6170   -9.2250 H   0  0  0  0  0  0  0  0  0  0  0  0
   16.1750   -1.7870  -11.0670 H   0  0  0  0  0  0  0  0  0  0  0  0
   14.5480   -3.0670  -14.6290 H   0  0  0  0  0  0  0  0  0  0  0  0
   13.2900   -4.8700  -13.4350 H   0  0  0  0  0  0  0  0  0  0  0  0
   11.7470   -5.9840   -9.8640 H   0  0  0  0  0  0  0  0  0  0  0  0
   10.2130   -8.5200  -11.5800 H   0  0  0  0  0  0  0  0  0  0  0  0
    9.8560   -7.0590  -10.6420 H   0  0  0  0  0  0  0  0  0  0  0  0
   10.9400   -8.3160  -10.0160 H   0  0  0  0  0  0  0  0  0  0  0  0
   10.9230   -7.5780  -13.4920 H   0  0  0  0  0  0  0  0  0  0  0  0
   11.7820   -6.0600  -13.5550 H   0  0  0  0  0  0  0  0  0  0  0  0
   10.2530   -6.1090  -12.7570 H   0  0  0  0  0  0  0  0  0  0  0  0
   12.6990   -8.9570  -12.1140 H   0  0  0  0  0  0  0  0  0  0  0  0
   13.0520   -8.4660  -10.4790 H   0  0  0  0  0  0  0  0  0  0  0  0
   13.9110   -7.6750  -11.7780 H   0  0  0  0  0  0  0  0  0  0  0  0
   15.5730   -3.4780   -8.9710 H   0  0  0  0  0  0  0  0  0  0  0  0
  1  2  1  0  0  0  0
  1 12  1  0  0  0  0
  2  3  2  0  0  0  0
  2  6  1  0  0  0  0
  3  4  1  0  0  0  0
  3  7  1  0  0  0  0
  4  5  1  0  0  0  0
  4 12  2  0  0  0  0
  5 28  1  0  0  0  0
  5 29  1  0  0  0  0
  5 30  1  0  0  0  0
  6 31  1  0  0  0  0
  6 32  1  0  0  0  0
  6 33  1  0  0  0  0
  7  8  1  0  0  0  0
  7 13  2  0  0  0  0
  8 16  2  0  0  0  0
  8 34  1  0  0  0  0
  9 11  2  0  0  0  0
  9 15  1  0  0  0  0
  9 17  1  0  0  0  0
 10 17  1  0  0  0  0
 10 18  1  0  0  0  0
 10 19  2  0  0  0  0
 11 18  1  0  0  0  0
 11 23  1  0  0  0  0
 13 14  1  0  0  0  0
 13 35  1  0  0  0  0
 14 15  2  0  0  0  0
 14 36  1  0  0  0  0
 15 16  1  0  0  0  0
 16 37  1  0  0  0  0
 17 51  1  0  0  0  0
 18 22  2  0  0  0  0
 19 20  1  0  0  0  0
 19 38  1  0  0  0  0
 20 21  2  0  0  0  0
 21 22  1  0  0  0  0
 21 39  1  0  0  0  0
 22 40  1  0  0  0  0
 23 24  1  0  0  0  0
 23 41  1  0  0  0  0
 24 25  1  0  0  0  0
 24 26  1  0  0  0  0
 24 27  1  0  0  0  0
 25 42  1  0  0  0  0
 25 43  1  0  0  0  0
 25 44  1  0  0  0  0
 26 45  1  0  0  0  0
 26 46  1  0  0  0  0
 26 47  1  0  0  0  0
 27 48  1  0  0  0  0
 27 49  1  0  0  0  0
 27 50  1  0  0  0  0
M  CHG  1  18   1
M  END
> <rseq>
1

> <mseq>
1

> <S>
-6.136185

> <rmsd>
6.626247

> <rmsd_refine>
1.985728

> <E_conf>
11.01629

> <E_place>
-80.57859

> <E_score1>
-9.158694

> <E_refine>
-26.66513

> <E_score2>
-6.136185

> <PLIF_pronum>
1

>  <PLIF_raw>
[[9,17,10,18,11],[684,684,684,684,684],[82,82,82,82,82],[10,10,10,10,10],[0.5,0.5,0.5,0.5,0.5]]

> <FP:PLIF>
4

>  <PLIF_ligidx>
[[9,17,10,18,11]]

$$$$
4wiv_ligand
  MOE2018           3D
4wiv_ligand
 51 54  0  0  0  0  0  0  0  0999 V2000
   12.9570   -9.5910  -11.6860 O   0  0  0  0  0  0  0  0  0  0  0  0
   13.7720   -8.9350  -10.8730 C   0  0  0  0  0  0  0  0  0  0  0  0
   13.1890   -7.7600  -10.5540 C   0  0  0  0  0  0  0  0  0  0  0  0
   12.0020   -7.7470  -11.3040 C   0  0  0  0  0  0  0  0  0  0  0  0
   10.9410   -6.6730  -11.4030 C   0  0  0  0  0  0  0  0  0  0  0  0
   15.0900   -9.5310  -10.4480 C   0  0  0  0  0  0  0  0  0  0  0  0
   13.6960   -6.8190   -9.5540 C   0  0  0  0  0  0  0  0  0  0  0  0
   13.7260   -5.4340   -9.7470 C   0  0  0  0  0  0  0  0  0  0  0  0
   14.7370   -4.1790   -6.3260 C   0  0  0  0  0  0  0  0  0  0  0  0
   14.7540   -2.2130   -5.2490 C   0  0  0  0  0  0  0  0  0  0  0  0
   15.2870   -4.3630   -5.0770 C   0  0  0  0  0  0  0  0  0  0  0  0
   11.8760   -8.8560  -11.9470 N   0  0  0  0  0  0  0  0  0  0  0  0
   14.1440   -7.3130   -8.3230 C   0  0  0  0  0  0  0  0  0  0  0  0
   14.5350   -6.4650   -7.3020 C   0  0  0  0  0  0  0  0  0  0  0  0
   14.4670   -5.0740   -7.4490 C   0  0  0  0  0  0  0  0  0  0  0  0
   14.1000   -4.5790   -8.7150 C   0  0  0  0  0  0  0  0  0  0  0  0
   14.3930   -2.8420   -6.3760 N   0  0  0  0  0  0  0  0  0  0  0  0
   15.3520   -3.1310   -4.4680 N   0  3  0  0  0  0  0  0  0  0  0  0
   14.6210   -0.8620   -4.8370 C   0  0  0  0  0  0  0  0  0  0  0  0
   15.1450   -0.4610   -3.7170 N   0  0  0  0  0  0  0  0  0  0  0  0
   15.8350   -1.3820   -2.9420 C   0  0  0  0  0  0  0  0  0  0  0  0
   15.9630   -2.7000   -3.3000 C   0  0  0  0  0  0  0  0  0  0  0  0
   15.7750   -5.5180   -4.4280 N   0  0  0  0  0  0  0  0  0  0  0  0
   14.9530   -6.2090   -3.3980 C   0  0  0  0  0  0  0  0  0  0  0  0
   15.5550   -7.6090   -3.2020 C   0  0  0  0  0  0  0  0  0  0  0  0
   14.9740   -5.4900   -2.0400 C   0  0  0  0  0  0  0  0  0  0  0  0
   13.4920   -6.3810   -3.8430 C   0  0  0  0  0  0  0  0  0  0  0  0
   10.5300   -6.6910  -12.4130 H   0  0  0  0  0  0  0  0  0  0  0  0
   11.3830   -5.6990  -11.2090 H   0  0  0  0  0  0  0  0  0  0  0  0
   10.1580   -6.9030  -10.6830 H   0  0  0  0  0  0  0  0  0  0  0  0
   15.7540   -8.7130  -10.1740 H   0  0  0  0  0  0  0  0  0  0  0  0
   15.5120  -10.0820  -11.2830 H   0  0  0  0  0  0  0  0  0  0  0  0
   14.9130  -10.1830   -9.5950 H   0  0  0  0  0  0  0  0  0  0  0  0
   13.4510   -5.0290  -10.6860 H   0  0  0  0  0  0  0  0  0  0  0  0
   14.1650   -8.3590   -8.1530 H   0  0  0  0  0  0  0  0  0  0  0  0
   14.8680   -6.8930   -6.3970 H   0  0  0  0  0  0  0  0  0  0  0  0
   14.0940   -3.5350   -8.8930 H   0  0  0  0  0  0  0  0  0  0  0  0
   14.0950   -0.1740   -5.4470 H   0  0  0  0  0  0  0  0  0  0  0  0
   16.2750   -1.0180   -2.0490 H   0  0  0  0  0  0  0  0  0  0  0  0
   16.5030   -3.4370   -2.7630 H   0  0  0  0  0  0  0  0  0  0  0  0
   16.0190   -6.2390   -5.1230 H   0  0  0  0  0  0  0  0  0  0  0  0
   14.9820   -8.1700   -2.4620 H   0  0  0  0  0  0  0  0  0  0  0  0
   16.5880   -7.5270   -2.8590 H   0  0  0  0  0  0  0  0  0  0  0  0
   15.5410   -8.1610   -4.1420 H   0  0  0  0  0  0  0  0  0  0  0  0
   14.4600   -6.0950   -1.2910 H   0  0  0  0  0  0  0  0  0  0  0  0
   14.4540   -4.5350   -2.1040 H   0  0  0  0  0  0  0  0  0  0  0  0
   16.0010   -5.3370   -1.7090 H   0  0  0  0  0  0  0  0  0  0  0  0
   12.9270   -6.8860   -3.0590 H   0  0  0  0  0  0  0  0  0  0  0  0
   13.4410   -6.9960   -4.7370 H   0  0  0  0  0  0  0  0  0  0  0  0
   13.0290   -5.4130   -4.0350 H   0  0  0  0  0  0  0  0  0  0  0  0
   13.9210   -2.3700   -7.1660 H   0  0  0  0  0  0  0  0  0  0  0  0
  1  2  1  0  0  0  0
  1 12  1  0  0  0  0
  2  3  2  0  0  0  0
  2  6  1  0  0  0  0
  3  4  1  0  0  0  0
  3  7  1  0  0  0  0
  4  5  1  0  0  0  0
  4 12  2  0  0  0  0
  5 28  1  0  0  0  0
  5 29  1  0  0  0  0
  5 30  1  0  0  0  0
  6 31  1  0  0  0  0
  6 32  1  0  0  0  0
  6 33  1  0  0  0  0
  7  8  1  0  0  0  0
  7 13  2  0  0  0  0
  8 16  2  0  0  0  0
  8 34  1  0  0  0  0
  9 11  2  0  0  0  0
  9 15  1  0  0  0  0
  9 17  1  0  0  0  0
 10 17  1  0  0  0  0
 10 18  1  0  0  0  0
 10 19  2  0  0  0  0
 11 18  1  0  0  0  0
 11 23  1  0  0  0  0
 13 14  1  0  0  0  0
 13 35  1  0  0  0  0
 14 15  2  0  0  0  0
 14 36  1  0  0  0  0
 15 16  1  0  0  0  0
 16 37  1  0  0  0  0
 17 51  1  0  0  0  0
 18 22  2  0  0  0  0
 19 20  1  0  0  0  0
 19 38  1  0  0  0  0
 20 21  2  0  0  0  0
 21 22  1  0  0  0  0
 21 39  1  0  0  0  0
 22 40  1  0  0  0  0
 23 24  1  0  0  0  0
 23 41  1  0  0  0  0
 24 25  1  0  0  0  0
 24 26  1  0  0  0  0
 24 27  1  0  0  0  0
 25 42  1  0  0  0  0
 25 43  1  0  0  0  0
 25 44  1  0  0  0  0
 26 45  1  0  0  0  0
 26 46  1  0  0  0  0
 26 47  1  0  0  0  0
 27 48  1  0  0  0  0
 27 49  1  0  0  0  0
 27 50  1  0  0  0  0
M  CHG  1  18   1
M  END
> <rseq>
1

> <mseq>
1

> <S>
-6.117006

> <rmsd>
3.196498

> <rmsd_refine>
1.449318

> <E_conf>
-6.746387

> <E_place>
-68.20634

> <E_score1>
-8.05486

> <E_refine>
-30.61833

> <E_score2>
-6.117006

> <PLIF_pronum>
1

>  <PLIF_raw>
[[1,12,4,3,2],[1657,1657,1657,1657,1657],[140,140,140,140,140],[10,10,10,10,10],[5.1,5.1,5.1,5.1,5.1]]

> <FP:PLIF>
9 11

>  <PLIF_ligidx>
[[1,12,4,3,2],[1,12,4,3,2]]

$$$$
4wiv_ligand
  MOE2018           3D
4wiv_ligand
 51 54  0  0  0  0  0  0  0  0999 V2000
   16.9510    0.0890  -12.8290 O   0  0  0  0  0  0  0  0  0  0  0  0
   16.7140   -0.4040  -11.6200 C   0  0  0  0  0  0  0  0  0  0  0  0
   15.9510   -1.5240  -11.7620 C   0  0  0  0  0  0  0  0  0  0  0  0
   15.8270   -1.6610  -13.1610 C   0  0  0  0  0  0  0  0  0  0  0  0
   15.1910   -2.7570  -13.9910 C   0  0  0  0  0  0  0  0  0  0  0  0
   17.3850    0.3270  -10.4720 C   0  0  0  0  0  0  0  0  0  0  0  0
   15.4360   -2.4310  -10.7070 C   0  0  0  0  0  0  0  0  0  0  0  0
   15.8990   -2.3640   -9.3830 C   0  0  0  0  0  0  0  0  0  0  0  0
   14.6080   -5.5100   -7.8210 C   0  0  0  0  0  0  0  0  0  0  0  0
   14.3000   -6.2660   -5.7360 C   0  0  0  0  0  0  0  0  0  0  0  0
   14.8970   -6.8570   -7.7950 C   0  0  0  0  0  0  0  0  0  0  0  0
   16.4110   -0.6860  -13.7610 N   0  0  0  0  0  0  0  0  0  0  0  0
   14.4960   -3.4390  -10.9820 C   0  0  0  0  0  0  0  0  0  0  0  0
   14.1840   -4.4210  -10.0510 C   0  0  0  0  0  0  0  0  0  0  0  0
   14.7860   -4.4390   -8.7890 C   0  0  0  0  0  0  0  0  0  0  0  0
   15.5960   -3.3480   -8.4560 C   0  0  0  0  0  0  0  0  0  0  0  0
   14.2280   -5.1930   -6.5350 N   0  0  0  0  0  0  0  0  0  0  0  0
   14.7180   -7.2900   -6.5030 N   0  3  0  0  0  0  0  0  0  0  0  0
   14.0040   -6.4380   -4.3590 C   0  0  0  0  0  0  0  0  0  0  0  0
   14.1380   -7.6040   -3.8000 N   0  0  0  0  0  0  0  0  0  0  0  0
   14.5870   -8.6660   -4.5750 C   0  0  0  0  0  0  0  0  0  0  0  0
   14.8920   -8.5310   -5.9070 C   0  0  0  0  0  0  0  0  0  0  0  0
   15.4220   -7.7860   -8.7170 N   0  0  0  0  0  0  0  0  0  0  0  0
   14.6510   -8.3540   -9.8390 C   0  0  0  0  0  0  0  0  0  0  0  0
   15.1210   -7.7650  -11.1460 C   0  0  0  0  0  0  0  0  0  0  0  0
   14.9050   -9.8620   -9.9040 C   0  0  0  0  0  0  0  0  0  0  0  0
   13.1480   -8.1460   -9.7530 C   0  0  0  0  0  0  0  0  0  0  0  0
   15.5230   -2.6450  -15.0220 H   0  0  0  0  0  0  0  0  0  0  0  0
   14.1090   -2.6600  -13.9410 H   0  0  0  0  0  0  0  0  0  0  0  0
   15.5280   -3.7200  -13.6070 H   0  0  0  0  0  0  0  0  0  0  0  0
   16.6910    0.4810   -9.6500 H   0  0  0  0  0  0  0  0  0  0  0  0
   17.7330    1.2950  -10.8350 H   0  0  0  0  0  0  0  0  0  0  0  0
   18.2360   -0.2720  -10.1480 H   0  0  0  0  0  0  0  0  0  0  0  0
   16.5410   -1.5880   -9.0770 H   0  0  0  0  0  0  0  0  0  0  0  0
   14.0010   -3.4710  -11.9110 H   0  0  0  0  0  0  0  0  0  0  0  0
   13.4750   -5.1570  -10.3110 H   0  0  0  0  0  0  0  0  0  0  0  0
   16.0130   -3.2840   -7.4840 H   0  0  0  0  0  0  0  0  0  0  0  0
   13.6670   -5.6140   -3.7830 H   0  0  0  0  0  0  0  0  0  0  0  0
   14.6910   -9.6020   -4.0880 H   0  0  0  0  0  0  0  0  0  0  0  0
   15.2530   -9.3010   -6.5400 H   0  0  0  0  0  0  0  0  0  0  0  0
   15.8330   -8.5870   -8.2170 H   0  0  0  0  0  0  0  0  0  0  0  0
   14.9840   -6.6880  -11.1650 H   0  0  0  0  0  0  0  0  0  0  0  0
   14.5470   -8.2140  -11.9510 H   0  0  0  0  0  0  0  0  0  0  0  0
   16.1720   -8.0070  -11.2790 H   0  0  0  0  0  0  0  0  0  0  0  0
   14.0920  -10.3750  -10.4180 H   0  0  0  0  0  0  0  0  0  0  0  0
   15.0050  -10.2490   -8.8950 H   0  0  0  0  0  0  0  0  0  0  0  0
   15.8160  -10.0830  -10.4520 H   0  0  0  0  0  0  0  0  0  0  0  0
   12.7790   -8.6000   -8.8450 H   0  0  0  0  0  0  0  0  0  0  0  0
   12.6420   -8.6090  -10.6020 H   0  0  0  0  0  0  0  0  0  0  0  0
   12.9360   -7.0860   -9.7790 H   0  0  0  0  0  0  0  0  0  0  0  0
   13.9430   -4.2540   -6.2060 H   0  0  0  0  0  0  0  0  0  0  0  0
  1  2  1  0  0  0  0
  1 12  1  0  0  0  0
  2  3  2  0  0  0  0
  2  6  1  0  0  0  0
  3  4  1  0  0  0  0
  3  7  1  0  0  0  0
  4  5  1  0  0  0  0
  4 12  2  0  0  0  0
  5 28  1  0  0  0  0
  5 29  1  0  0  0  0
  5 30  1  0  0  0  0
  6 31  1  0  0  0  0
  6 32  1  0  0  0  0
  6 33  1  0  0  0  0
  7  8  1  0  0  0  0
  7 13  2  0  0  0  0
  8 16  2  0  0  0  0
  8 34  1  0  0  0  0
  9 11  2  0  0  0  0
  9 15  1  0  0  0  0
  9 17  1  0  0  0  0
 10 17  1  0  0  0  0
 10 18  1  0  0  0  0
 10 19  2  0  0  0  0
 11 18  1  0  0  0  0
 11 23  1  0  0  0  0
 13 14  1  0  0  0  0
 13 35  1  0  0  0  0
 14 15  2  0  0  0  0
 14 36  1  0  0  0  0
 15 16  1  0  0  0  0
 16 37  1  0  0  0  0
 17 51  1  0  0  0  0
 18 22  2  0  0  0  0
 19 20  1  0  0  0  0
 19 38  1  0  0  0  0
 20 21  2  0  0  0  0
 21 22  1  0  0  0  0
 21 39  1  0  0  0  0
 22 40  1  0  0  0  0
 23 24  1  0  0  0  0
 23 41  1  0  0  0  0
 24 25  1  0  0  0  0
 24 26  1  0  0  0  0
 24 27  1  0  0  0  0
 25 42  1  0  0  0  0
 25 43  1  0  0  0  0
 25 44  1  0  0  0  0
 26 45  1  0  0  0  0
 26 46  1  0  0  0  0
 26 47  1  0  0  0  0
 27 48  1  0  0  0  0
 27 49  1  0  0  0  0
 27 50  1  0  0  0  0
M  CHG  1  18   1
M  END
> <rseq>
1

> <mseq>
1

> <S>
-6.111002

> <rmsd>
7.094653

> <rmsd_refine>
1.808547

> <E_conf>
3.104894

> <E_place>
-45.99102

> <E_score1>
-8.789946

> <E_refine>
-25.08807

> <E_score2>
-6.111002

> <PLIF_pronum>
1

>  <PLIF_raw>
[[7,13,14,15,16,8],[844,844,844,844,844,844],[92,92,92,92,92,92],[10,10,10,10,10,10],[0.5,0.5,0.5,0.5,0.5,0.5]]

> <FP:PLIF>
1

>  <PLIF_ligidx>
[[7,13,14,15,16,8]]

$$$$
4wiv_ligand
  MOE2018           3D
4wiv_ligand
 51 54  0  0  0  0  0  0  0  0999 V2000
   18.4280    0.5790  -13.0670 O   0  0  0  0  0  0  0  0  0  0  0  0
   17.9310   -0.6420  -12.8980 C   0  0  0  0  0  0  0  0  0  0  0  0
   16.5850   -0.5520  -12.9280 C   0  0  0  0  0  0  0  0  0  0  0  0
   16.3290    0.8110  -13.1110 C   0  0  0  0  0  0  0  0  0  0  0  0
   14.9860    1.4920  -13.1910 C   0  0  0  0  0  0  0  0  0  0  0  0
   18.8580   -1.8120  -12.6810 C   0  0  0  0  0  0  0  0  0  0  0  0
   15.6370   -1.6480  -12.7570 C   0  0  0  0  0  0  0  0  0  0  0  0
   15.2450   -2.0360  -11.4750 C   0  0  0  0  0  0  0  0  0  0  0  0
   13.1280   -5.0740  -12.0770 C   0  0  0  0  0  0  0  0  0  0  0  0
   13.2420   -7.0630  -11.0820 C   0  0  0  0  0  0  0  0  0  0  0  0
   11.9320   -5.7640  -12.3290 C   0  0  0  0  0  0  0  0  0  0  0  0
   17.4360    1.4630  -13.1970 N   0  0  0  0  0  0  0  0  0  0  0  0
   15.1220   -2.3620  -13.8460 C   0  0  0  0  0  0  0  0  0  0  0  0
   14.2560   -3.4340  -13.6590 C   0  0  0  0  0  0  0  0  0  0  0  0
   13.8820   -3.8510  -12.3690 C   0  0  0  0  0  0  0  0  0  0  0  0
   14.3950   -3.1140  -11.2870 C   0  0  0  0  0  0  0  0  0  0  0  0
   13.8810   -5.9280  -11.3050 N   0  0  0  0  0  0  0  0  0  0  0  0
   12.0070   -6.9150  -11.5870 N   0  3  0  0  0  0  0  0  0  0  0  0
   13.6840   -8.2820  -10.5260 C   0  0  0  0  0  0  0  0  0  0  0  0
   12.8550   -9.2680  -10.4220 N   0  0  0  0  0  0  0  0  0  0  0  0
   11.5340   -9.0680  -10.7990 C   0  0  0  0  0  0  0  0  0  0  0  0
   11.0780   -7.8960  -11.3320 C   0  0  0  0  0  0  0  0  0  0  0  0
   10.7300   -5.6330  -13.1450 N   0  0  0  0  0  0  0  0  0  0  0  0
   10.6280   -6.3800  -14.4700 C   0  0  0  0  0  0  0  0  0  0  0  0
   11.5130   -5.6070  -15.4530 C   0  0  0  0  0  0  0  0  0  0  0  0
   10.7100   -7.9300  -14.3450 C   0  0  0  0  0  0  0  0  0  0  0  0
    9.2950   -6.3280  -15.2470 C   0  0  0  0  0  0  0  0  0  0  0  0
   14.8190    1.7940  -14.2250 H   0  0  0  0  0  0  0  0  0  0  0  0
   15.0060    2.3660  -12.5400 H   0  0  0  0  0  0  0  0  0  0  0  0
   14.2230    0.7910  -12.8590 H   0  0  0  0  0  0  0  0  0  0  0  0
   18.3060   -2.7330  -12.8680 H   0  0  0  0  0  0  0  0  0  0  0  0
   19.2150   -1.7730  -11.6530 H   0  0  0  0  0  0  0  0  0  0  0  0
   19.6920   -1.7070  -13.3740 H   0  0  0  0  0  0  0  0  0  0  0  0
   15.6190   -1.5100  -10.6350 H   0  0  0  0  0  0  0  0  0  0  0  0
   15.4080   -2.0850  -14.8280 H   0  0  0  0  0  0  0  0  0  0  0  0
   13.8920   -3.9460  -14.5070 H   0  0  0  0  0  0  0  0  0  0  0  0
   14.1460   -3.3980  -10.2970 H   0  0  0  0  0  0  0  0  0  0  0  0
   14.6920   -8.3970  -10.2160 H   0  0  0  0  0  0  0  0  0  0  0  0
   10.8730   -9.8700  -10.6460 H   0  0  0  0  0  0  0  0  0  0  0  0
   10.0770   -7.6780  -11.6090 H   0  0  0  0  0  0  0  0  0  0  0  0
   10.5730   -4.6390  -13.3730 H   0  0  0  0  0  0  0  0  0  0  0  0
   11.0530   -4.6410  -15.6450 H   0  0  0  0  0  0  0  0  0  0  0  0
   11.6290   -6.1410  -16.3950 H   0  0  0  0  0  0  0  0  0  0  0  0
   12.4880   -5.4100  -15.0300 H   0  0  0  0  0  0  0  0  0  0  0  0
   10.7950   -8.3920  -15.3300 H   0  0  0  0  0  0  0  0  0  0  0  0
    9.8310   -8.3380  -13.8450 H   0  0  0  0  0  0  0  0  0  0  0  0
   11.5300   -8.2650  -13.7440 H   0  0  0  0  0  0  0  0  0  0  0  0
    8.5680   -7.0150  -14.8320 H   0  0  0  0  0  0  0  0  0  0  0  0
    9.4580   -6.6850  -16.2600 H   0  0  0  0  0  0  0  0  0  0  0  0
    8.8650   -5.3410  -15.3380 H   0  0  0  0  0  0  0  0  0  0  0  0
   14.8490   -5.7490  -10.9860 H   0  0  0  0  0  0  0  0  0  0  0  0
  1  2  1  0  0  0  0
  1 12  1  0  0  0  0
  2  3  2  0  0  0  0
  2  6  1  0  0  0  0
  3  4  1  0  0  0  0
  3  7  1  0  0  0  0
  4  5  1  0  0  0  0
  4 12  2  0  0  0  0
  5 28  1  0  0  0  0
  5 29  1  0  0  0  0
  5 30  1  0  0  0  0
  6 31  1  0  0  0  0
  6 32  1  0  0  0  0
  6 33  1  0  0  0  0
  7  8  1  0  0  0  0
  7 13  2  0  0  0  0
  8 16  2  0  0  0  0
  8 34  1  0  0  0  0
  9 11  2  0  0  0  0
  9 15  1  0  0  0  0
  9 17  1  0  0  0  0
 10 17  1  0  0  0  0
 10 18  1  0  0  0  0
 10 19  2  0  0  0  0
 11 18  1  0  0  0  0
 11 23  1  0  0  0  0
 13 14  1  0  0  0  0
 13 35  1  0  0  0  0
 14 15  2  0  0  0  0
 14 36  1  0  0  0  0
 15 16  1  0  0  0  0
 16 37  1  0  0  0  0
 17 51  1  0  0  0  0
 18 22  2  0  0  0  0
 19 20  1  0  0  0  0
 19 38  1  0  0  0  0
 20 21  2  0  0  0  0
 21 22  1  0  0  0  0
 21 39  1  0  0  0  0
 22 40  1  0  0  0  0
 23 24  1  0  0  0  0
 23 41  1  0  0  0  0
 24 25  1  0  0  0  0
 24 26  1  0  0  0  0
 24 27  1  0  0  0  0
 25 42  1  0  0  0  0
 25 43  1  0  0  0  0
 25 44  1  0  0  0  0
 26 45  1  0  0  0  0
 26 46  1  0  0  0  0
 26 47  1  0  0  0  0
 27 48  1  0  0  0  0
 27 49  1  0  0  0  0
 27 50  1  0  0  0  0
M  CHG  1  18   1
M  END
> <rseq>
1

> <mseq>
1

> <S>
-6.084869

> <rmsd>
8.830699

> <rmsd_refine>
1.547856

> <E_conf>
22.17765

> <E_place>
-45.81414

> <E_score1>
-8.452932

> <E_refine>
-20.37098

> <E_score2>
-6.084869

> <PLIF_pronum>
1

>  <PLIF_raw>
[[23,20,7,13,14,15,16,8],[683,1657,844,844,844,844,844,844],[82,140,92,92,92,92,92,92],[3,2,10,10,10,10,10,10],[1.5,1.6,0.5,0.5,0.5,0.5,0.5,0.5]]

> <FP:PLIF>
2 3 1 12 13

>  <PLIF_ligidx>
[23,23,[7,13,14,15,16,8],20,20]

$$$$
4wiv_ligand
  MOE2018           3D
4wiv_ligand
 51 54  0  0  0  0  0  0  0  0999 V2000
   17.5260    1.3960  -13.0510 O   0  0  0  0  0  0  0  0  0  0  0  0
   16.4040    0.7080  -12.8520 C   0  0  0  0  0  0  0  0  0  0  0  0
   16.7450   -0.5670  -12.5730 C   0  0  0  0  0  0  0  0  0  0  0  0
   18.1410   -0.5810  -12.6410 C   0  0  0  0  0  0  0  0  0  0  0  0
   19.0460   -1.7690  -12.4340 C   0  0  0  0  0  0  0  0  0  0  0  0
   15.0660    1.3920  -12.9760 C   0  0  0  0  0  0  0  0  0  0  0  0
   15.8500   -1.6840  -12.2930 C   0  0  0  0  0  0  0  0  0  0  0  0
   15.2910   -2.4150  -13.3420 C   0  0  0  0  0  0  0  0  0  0  0  0
   13.1810   -4.9710  -11.5600 C   0  0  0  0  0  0  0  0  0  0  0  0
   11.6840   -6.4960  -12.2310 C   0  0  0  0  0  0  0  0  0  0  0  0
   13.0500   -5.9190  -10.5780 C   0  0  0  0  0  0  0  0  0  0  0  0
   18.5860    0.5940  -12.9190 N   0  0  0  0  0  0  0  0  0  0  0  0
   15.5230   -2.0540  -10.9820 C   0  0  0  0  0  0  0  0  0  0  0  0
   14.6590   -3.1140  -10.7300 C   0  0  0  0  0  0  0  0  0  0  0  0
   14.0870   -3.8470  -11.7810 C   0  0  0  0  0  0  0  0  0  0  0  0
   14.4310   -3.4730  -13.0930 C   0  0  0  0  0  0  0  0  0  0  0  0
   12.2680   -5.3370  -12.5200 N   0  0  0  0  0  0  0  0  0  0  0  0
   12.2090   -6.8960  -11.0630 N   0  3  0  0  0  0  0  0  0  0  0  0
   10.7680   -7.2940  -12.9630 C   0  0  0  0  0  0  0  0  0  0  0  0
   10.4860   -8.4960  -12.5580 N   0  0  0  0  0  0  0  0  0  0  0  0
   11.0820   -8.9400  -11.3900 C   0  0  0  0  0  0  0  0  0  0  0  0
   11.9080   -8.1670  -10.6250 C   0  0  0  0  0  0  0  0  0  0  0  0
   13.5360   -5.9710   -9.2590 N   0  0  0  0  0  0  0  0  0  0  0  0
   14.7040   -6.7800   -8.9000 C   0  0  0  0  0  0  0  0  0  0  0  0
   15.7200   -5.7990   -8.2890 C   0  0  0  0  0  0  0  0  0  0  0  0
   14.3830   -7.7440   -7.7560 C   0  0  0  0  0  0  0  0  0  0  0  0
   15.2010   -7.6450  -10.0790 C   0  0  0  0  0  0  0  0  0  0  0  0
   19.9010   -1.6590  -13.0980 H   0  0  0  0  0  0  0  0  0  0  0  0
   18.4890   -2.6720  -12.6800 H   0  0  0  0  0  0  0  0  0  0  0  0
   19.3680   -1.7710  -11.3940 H   0  0  0  0  0  0  0  0  0  0  0  0
   14.2870    0.6700  -12.7360 H   0  0  0  0  0  0  0  0  0  0  0  0
   14.9600    1.7480  -14.0010 H   0  0  0  0  0  0  0  0  0  0  0  0
   15.0490    2.2310  -12.2800 H   0  0  0  0  0  0  0  0  0  0  0  0
   15.5300   -2.1580  -14.3430 H   0  0  0  0  0  0  0  0  0  0  0  0
   15.9400   -1.5130  -10.1710 H   0  0  0  0  0  0  0  0  0  0  0  0
   14.4230   -3.3600   -9.7280 H   0  0  0  0  0  0  0  0  0  0  0  0
   14.0290   -4.0040  -13.9170 H   0  0  0  0  0  0  0  0  0  0  0  0
   10.3350   -6.9200  -13.8560 H   0  0  0  0  0  0  0  0  0  0  0  0
   10.8770   -9.9250  -11.0920 H   0  0  0  0  0  0  0  0  0  0  0  0
   12.3610   -8.4640   -9.7170 H   0  0  0  0  0  0  0  0  0  0  0  0
   13.7300   -5.0210   -8.9100 H   0  0  0  0  0  0  0  0  0  0  0  0
   16.6330   -6.3220   -8.0020 H   0  0  0  0  0  0  0  0  0  0  0  0
   15.3010   -5.3300   -7.3970 H   0  0  0  0  0  0  0  0  0  0  0  0
   15.9560   -5.0060   -8.9940 H   0  0  0  0  0  0  0  0  0  0  0  0
   15.2970   -8.2050   -7.3800 H   0  0  0  0  0  0  0  0  0  0  0  0
   13.7470   -8.5410   -8.1210 H   0  0  0  0  0  0  0  0  0  0  0  0
   13.8960   -7.2160   -6.9360 H   0  0  0  0  0  0  0  0  0  0  0  0
   16.1200   -8.1400   -9.8010 H   0  0  0  0  0  0  0  0  0  0  0  0
   15.3650   -7.0450  -10.9710 H   0  0  0  0  0  0  0  0  0  0  0  0
   14.4930   -8.4320  -10.3250 H   0  0  0  0  0  0  0  0  0  0  0  0
   12.0660   -4.7950  -13.3810 H   0  0  0  0  0  0  0  0  0  0  0  0
  1  2  1  0  0  0  0
  1 12  1  0  0  0  0
  2  3  2  0  0  0  0
  2  6  1  0  0  0  0
  3  4  1  0  0  0  0
  3  7  1  0  0  0  0
  4  5  1  0  0  0  0
  4 12  2  0  0  0  0
  5 28  1  0  0  0  0
  5 29  1  0  0  0  0
  5 30  1  0  0  0  0
  6 31  1  0  0  0  0
  6 32  1  0  0  0  0
  6 33  1  0  0  0  0
  7  8  1  0  0  0  0
  7 13  2  0  0  0  0
  8 16  2  0  0  0  0
  8 34  1  0  0  0  0
  9 11  2  0  0  0  0
  9 15  1  0  0  0  0
  9 17  1  0  0  0  0
 10 17  1  0  0  0  0
 10 18  1  0  0  0  0
 10 19  2  0  0  0  0
 11 18  1  0  0  0  0
 11 23  1  0  0  0  0
 13 14  1  0  0  0  0
 13 35  1  0  0  0  0
 14 15  2  0  0  0  0
 14 36  1  0  0  0  0
 15 16  1  0  0  0  0
 16 37  1  0  0  0  0
 17 51  1  0  0  0  0
 18 22  2  0  0  0  0
 19 20  1  0  0  0  0
 19 38  1  0  0  0  0
 20 21  2  0  0  0  0
 21 22  1  0  0  0  0
 21 39  1  0  0  0  0
 22 40  1  0  0  0  0
 23 24  1  0  0  0  0
 23 41  1  0  0  0  0
 24 25  1  0  0  0  0
 24 26  1  0  0  0  0
 24 27  1  0  0  0  0
 25 42  1  0  0  0  0
 25 43  1  0  0  0  0
 25 44  1  0  0  0  0
 26 45  1  0  0  0  0
 26 46  1  0  0  0  0
 26 47  1  0  0  0  0
 27 48  1  0  0  0  0
 27 49  1  0  0  0  0
 27 50  1  0  0  0  0
M  CHG  1  18   1
M  END
> <rseq>
1

> <mseq>
1

> <S>
-6.062393

> <rmsd>
8.175293

> <rmsd_refine>
1.138135

> <E_conf>
-2.192089

> <E_place>
-70.10171

> <E_score1>
-8.465907

> <E_refine>
-25.44822

> <E_score2>
-6.062393

> <PLIF_pronum>
1

>  <PLIF_raw>
[[17,7,13,14,15,16,8],[683,844,844,844,844,844,844],[82,92,92,92,92,92,92],[3,10,10,10,10,10,10],[2,0.8,0.8,0.8,0.8,0.8,0.8]]

> <FP:PLIF>
2 3 1

>  <PLIF_ligidx>
[17,17,[7,13,14,15,16,8]]

$$$$
4wiv_ligand
  MOE2018           3D
4wiv_ligand
 51 54  0  0  0  0  0  0  0  0999 V2000
   14.4920   -6.0660   -1.0600 O   0  0  0  0  0  0  0  0  0  0  0  0
   14.5930   -5.2510   -2.1080 C   0  0  0  0  0  0  0  0  0  0  0  0
   14.6880   -6.0180   -3.2150 C   0  0  0  0  0  0  0  0  0  0  0  0
   14.6550   -7.3330   -2.7440 C   0  0  0  0  0  0  0  0  0  0  0  0
   14.7370   -8.5950   -3.5760 C   0  0  0  0  0  0  0  0  0  0  0  0
   14.5770   -3.7510   -1.9240 C   0  0  0  0  0  0  0  0  0  0  0  0
   14.7680   -5.5710   -4.6000 C   0  0  0  0  0  0  0  0  0  0  0  0
   15.8060   -5.9870   -5.4420 C   0  0  0  0  0  0  0  0  0  0  0  0
   14.7410   -4.5460   -8.7490 C   0  0  0  0  0  0  0  0  0  0  0  0
   15.0740   -3.2100  -10.5080 C   0  0  0  0  0  0  0  0  0  0  0  0
   14.1340   -5.1170   -9.8470 C   0  0  0  0  0  0  0  0  0  0  0  0
   14.5330   -7.3410   -1.4620 N   0  0  0  0  0  0  0  0  0  0  0  0
   13.7910   -4.7200   -5.1270 C   0  0  0  0  0  0  0  0  0  0  0  0
   13.8070   -4.3650   -6.4670 C   0  0  0  0  0  0  0  0  0  0  0  0
   14.7900   -4.8590   -7.3330 C   0  0  0  0  0  0  0  0  0  0  0  0
   15.8250   -5.6250   -6.7820 C   0  0  0  0  0  0  0  0  0  0  0  0
   15.3110   -3.3790   -9.2010 N   0  0  0  0  0  0  0  0  0  0  0  0
   14.3420   -4.2680  -10.9090 N   0  3  0  0  0  0  0  0  0  0  0  0
   15.4740   -2.1970  -11.4180 C   0  0  0  0  0  0  0  0  0  0  0  0
   15.1450   -2.2740  -12.6740 N   0  0  0  0  0  0  0  0  0  0  0  0
   14.3880   -3.3570  -13.0970 C   0  0  0  0  0  0  0  0  0  0  0  0
   13.9660   -4.3440  -12.2410 C   0  0  0  0  0  0  0  0  0  0  0  0
   13.3450   -6.2690  -10.0820 N   0  0  0  0  0  0  0  0  0  0  0  0
   13.8540   -7.6540   -9.9540 C   0  0  0  0  0  0  0  0  0  0  0  0
   12.7080   -8.6350  -10.2460 C   0  0  0  0  0  0  0  0  0  0  0  0
   14.8930   -7.9510  -11.0330 C   0  0  0  0  0  0  0  0  0  0  0  0
   14.4760   -7.9350   -8.5850 C   0  0  0  0  0  0  0  0  0  0  0  0
   14.6600   -9.4570   -2.9130 H   0  0  0  0  0  0  0  0  0  0  0  0
   15.6980   -8.6100   -4.0890 H   0  0  0  0  0  0  0  0  0  0  0  0
   13.9170   -8.5910   -4.2930 H   0  0  0  0  0  0  0  0  0  0  0  0
   15.3020   -3.3120   -2.6090 H   0  0  0  0  0  0  0  0  0  0  0  0
   14.8420   -3.5260   -0.8900 H   0  0  0  0  0  0  0  0  0  0  0  0
   13.5740   -3.3860   -2.1440 H   0  0  0  0  0  0  0  0  0  0  0  0
   16.5860   -6.5890   -5.0510 H   0  0  0  0  0  0  0  0  0  0  0  0
   13.0200   -4.3550   -4.4970 H   0  0  0  0  0  0  0  0  0  0  0  0
   13.0620   -3.7110   -6.8370 H   0  0  0  0  0  0  0  0  0  0  0  0
   16.6280   -5.9450   -7.3960 H   0  0  0  0  0  0  0  0  0  0  0  0
   16.0510   -1.3770  -11.0750 H   0  0  0  0  0  0  0  0  0  0  0  0
   14.1300   -3.3860  -14.1250 H   0  0  0  0  0  0  0  0  0  0  0  0
   13.3640   -5.1740  -12.5020 H   0  0  0  0  0  0  0  0  0  0  0  0
   12.8620   -6.2020  -10.9890 H   0  0  0  0  0  0  0  0  0  0  0  0
   13.1070   -9.6400  -10.3880 H   0  0  0  0  0  0  0  0  0  0  0  0
   12.1780   -8.3410  -11.1540 H   0  0  0  0  0  0  0  0  0  0  0  0
   12.0020   -8.6620   -9.4240 H   0  0  0  0  0  0  0  0  0  0  0  0
   15.4620   -8.8500  -10.7890 H   0  0  0  0  0  0  0  0  0  0  0  0
   15.5610   -7.1140  -11.1380 H   0  0  0  0  0  0  0  0  0  0  0  0
   14.3980   -8.1130  -11.9810 H   0  0  0  0  0  0  0  0  0  0  0  0
   14.6090   -9.0070   -8.4490 H   0  0  0  0  0  0  0  0  0  0  0  0
   13.8420   -7.5460   -7.7900 H   0  0  0  0  0  0  0  0  0  0  0  0
   15.4610   -7.4810   -8.5390 H   0  0  0  0  0  0  0  0  0  0  0  0
   15.8480   -2.7090   -8.6230 H   0  0  0  0  0  0  0  0  0  0  0  0
  1  2  1  0  0  0  0
  1 12  1  0  0  0  0
  2  3  2  0  0  0  0
  2  6  1  0  0  0  0
  3  4  1  0  0  0  0
  3  7  1  0  0  0  0
  4  5  1  0  0  0  0
  4 12  2  0  0  0  0
  5 28  1  0  0  0  0
  5 29  1  0  0  0  0
  5 30  1  0  0  0  0
  6 31  1  0  0  0  0
  6 32  1  0  0  0  0
  6 33  1  0  0  0  0
  7  8  1  0  0  0  0
  7 13  2  0  0  0  0
  8 16  2  0  0  0  0
  8 34  1  0  0  0  0
  9 11  2  0  0  0  0
  9 15  1  0  0  0  0
  9 17  1  0  0  0  0
 10 17  1  0  0  0  0
 10 18  1  0  0  0  0
 10 19  2  0  0  0  0
 11 18  1  0  0  0  0
 11 23  1  0  0  0  0
 13 14  1  0  0  0  0
 13 35  1  0  0  0  0
 14 15  2  0  0  0  0
 14 36  1  0  0  0  0
 15 16  1  0  0  0  0
 16 37  1  0  0  0  0
 17 51  1  0  0  0  0
 18 22  2  0  0  0  0
 19 20  1  0  0  0  0
 19 38  1  0  0  0  0
 20 21  2  0  0  0  0
 21 22  1  0  0  0  0
 21 39  1  0  0  0  0
 22 40  1  0  0  0  0
 23 24  1  0  0  0  0
 23 41  1  0  0  0  0
 24 25  1  0  0  0  0
 24 26  1  0  0  0  0
 24 27  1  0  0  0  0
 25 42  1  0  0  0  0
 25 43  1  0  0  0  0
 25 44  1  0  0  0  0
 26 45  1  0  0  0  0
 26 46  1  0  0  0  0
 26 47  1  0  0  0  0
 27 48  1  0  0  0  0
 27 49  1  0  0  0  0
 27 50  1  0  0  0  0
M  CHG  1  18   1
M  END
> <rseq>
1

> <mseq>
1

> <S>
-5.979394

> <rmsd>
6.838724

> <rmsd_refine>
1.990049

> <E_conf>
-6.39582

> <E_place>
-59.35794

> <E_score1>
-8.179899

> <E_refine>
-28.45257

> <E_score2>
-5.979394

> <PLIF_pronum>
1

>  <PLIF_raw>
[[9,17,10,18,11,10,19,20,21,22,18,1,12,4,3,2],[684,684,684,684,684,684,684,684,684,684,684,1709,1709,1709,1709,1709],[82,82,82,82,82,82,82,82,82,82,82,145,145,145,145,145],[10,10,10,10,10,10,10,10,10,10,10,10,10,10,10,10],[1.1,1.1,1.1,1.1,1.1,1.1,1.1,1.1,1.1,1.1,1.1,0.5,0.5,0.5,0.5,0.5]]

> <FP:PLIF>
4 14 15

>  <PLIF_ligidx>
[[9,17,10,18,11,10,19,20,21,22,18],[9,17,10,18,11,10,19,20,21,22,18],[1,12,4,3,2]]

$$$$
4wiv_ligand
  MOE2018           3D
4wiv_ligand
 51 54  0  0  0  0  0  0  0  0999 V2000
   14.4790   -5.9260   -1.1120 O   0  0  0  0  0  0  0  0  0  0  0  0
   14.5490   -5.1240   -2.1710 C   0  0  0  0  0  0  0  0  0  0  0  0
   14.5860   -5.9000   -3.2760 C   0  0  0  0  0  0  0  0  0  0  0  0
   14.5620   -7.2120   -2.7880 C   0  0  0  0  0  0  0  0  0  0  0  0
   14.6140   -8.4950   -3.5880 C   0  0  0  0  0  0  0  0  0  0  0  0
   14.5650   -3.6230   -1.9810 C   0  0  0  0  0  0  0  0  0  0  0  0
   14.6250   -5.4560   -4.6690 C   0  0  0  0  0  0  0  0  0  0  0  0
   15.4800   -6.0610   -5.5980 C   0  0  0  0  0  0  0  0  0  0  0  0
   14.6190   -4.2750   -8.7700 C   0  0  0  0  0  0  0  0  0  0  0  0
   15.0620   -3.0890  -10.6040 C   0  0  0  0  0  0  0  0  0  0  0  0
   14.0410   -4.9100   -9.8340 C   0  0  0  0  0  0  0  0  0  0  0  0
   14.4920   -7.2040   -1.5030 N   0  0  0  0  0  0  0  0  0  0  0  0
   13.7970   -4.4160   -5.1140 C   0  0  0  0  0  0  0  0  0  0  0  0
   13.8130   -4.0090   -6.4400 C   0  0  0  0  0  0  0  0  0  0  0  0
   14.6440   -4.6410   -7.3730 C   0  0  0  0  0  0  0  0  0  0  0  0
   15.4840   -5.6670   -6.9280 C   0  0  0  0  0  0  0  0  0  0  0  0
   15.2360   -3.1560   -9.2750 N   0  0  0  0  0  0  0  0  0  0  0  0
   14.3120   -4.1570  -10.9560 N   0  3  0  0  0  0  0  0  0  0  0  0
   15.5220   -2.1540  -11.5660 C   0  0  0  0  0  0  0  0  0  0  0  0
   15.2100   -2.2930  -12.8210 N   0  0  0  0  0  0  0  0  0  0  0  0
   14.4090   -3.3630  -13.1890 C   0  0  0  0  0  0  0  0  0  0  0  0
   13.9390   -4.2810  -12.2840 C   0  0  0  0  0  0  0  0  0  0  0  0
   13.2230   -6.0540   -9.7900 N   0  0  0  0  0  0  0  0  0  0  0  0
   13.4290   -7.3460  -10.4660 C   0  0  0  0  0  0  0  0  0  0  0  0
   13.4520   -8.4690   -9.4170 C   0  0  0  0  0  0  0  0  0  0  0  0
   12.2420   -7.6190  -11.4060 C   0  0  0  0  0  0  0  0  0  0  0  0
   14.7910   -7.4550  -11.1380 C   0  0  0  0  0  0  0  0  0  0  0  0
   14.4120   -9.3290   -2.9180 H   0  0  0  0  0  0  0  0  0  0  0  0
   15.6140   -8.6050   -4.0040 H   0  0  0  0  0  0  0  0  0  0  0  0
   13.8650   -8.4470   -4.3780 H   0  0  0  0  0  0  0  0  0  0  0  0
   15.1890   -3.1810   -2.7570 H   0  0  0  0  0  0  0  0  0  0  0  0
   14.9730   -3.4060   -0.9940 H   0  0  0  0  0  0  0  0  0  0  0  0
   13.5420   -3.2560   -2.0540 H   0  0  0  0  0  0  0  0  0  0  0  0
   16.1380   -6.8290   -5.2850 H   0  0  0  0  0  0  0  0  0  0  0  0
   13.1410   -3.9400   -4.4320 H   0  0  0  0  0  0  0  0  0  0  0  0
   13.1760   -3.2210   -6.7530 H   0  0  0  0  0  0  0  0  0  0  0  0
   16.1310   -6.1510   -7.6140 H   0  0  0  0  0  0  0  0  0  0  0  0
   16.1280   -1.3380  -11.2630 H   0  0  0  0  0  0  0  0  0  0  0  0
   14.1550   -3.4380  -14.2160 H   0  0  0  0  0  0  0  0  0  0  0  0
   13.3000   -5.0930  -12.5050 H   0  0  0  0  0  0  0  0  0  0  0  0
   12.9580   -6.2670   -8.8160 H   0  0  0  0  0  0  0  0  0  0  0  0
   13.7940   -9.4050   -9.8620 H   0  0  0  0  0  0  0  0  0  0  0  0
   12.4530   -8.6420   -9.0380 H   0  0  0  0  0  0  0  0  0  0  0  0
   14.1150   -8.2100   -8.5900 H   0  0  0  0  0  0  0  0  0  0  0  0
   12.3750   -8.5740  -11.9130 H   0  0  0  0  0  0  0  0  0  0  0  0
   12.1390   -6.8300  -12.1450 H   0  0  0  0  0  0  0  0  0  0  0  0
   11.3120   -7.6560  -10.8370 H   0  0  0  0  0  0  0  0  0  0  0  0
   14.8470   -8.3880  -11.6980 H   0  0  0  0  0  0  0  0  0  0  0  0
   15.5680   -7.4720  -10.3790 H   0  0  0  0  0  0  0  0  0  0  0  0
   14.9510   -6.6200  -11.8040 H   0  0  0  0  0  0  0  0  0  0  0  0
   15.7720   -2.4610   -8.7270 H   0  0  0  0  0  0  0  0  0  0  0  0
  1  2  1  0  0  0  0
  1 12  1  0  0  0  0
  2  3  2  0  0  0  0
  2  6  1  0  0  0  0
  3  4  1  0  0  0  0
  3  7  1  0  0  0  0
  4  5  1  0  0  0  0
  4 12  2  0  0  0  0
  5 28  1  0  0  0  0
  5 29  1  0  0  0  0
  5 30  1  0  0  0  0
  6 31  1  0  0  0  0
  6 32  1  0  0  0  0
  6 33  1  0  0  0  0
  7  8  1  0  0  0  0
  7 13  2  0  0  0  0
  8 16  2  0  0  0  0
  8 34  1  0  0  0  0
  9 11  2  0  0  0  0
  9 15  1  0  0  0  0
  9 17  1  0  0  0  0
 10 17  1  0  0  0  0
 10 18  1  0  0  0  0
 10 19  2  0  0  0  0
 11 18  1  0  0  0  0
 11 23  1  0  0  0  0
 13 14  1  0  0  0  0
 13 35  1  0  0  0  0
 14 15  2  0  0  0  0
 14 36  1  0  0  0  0
 15 16  1  0  0  0  0
 16 37  1  0  0  0  0
 17 51  1  0  0  0  0
 18 22  2  0  0  0  0
 19 20  1  0  0  0  0
 19 38  1  0  0  0  0
 20 21  2  0  0  0  0
 21 22  1  0  0  0  0
 21 39  1  0  0  0  0
 22 40  1  0  0  0  0
 23 24  1  0  0  0  0
 23 41  1  0  0  0  0
 24 25  1  0  0  0  0
 24 26  1  0  0  0  0
 24 27  1  0  0  0  0
 25 42  1  0  0  0  0
 25 43  1  0  0  0  0
 25 44  1  0  0  0  0
 26 45  1  0  0  0  0
 26 46  1  0  0  0  0
 26 47  1  0  0  0  0
 27 48  1  0  0  0  0
 27 49  1  0  0  0  0
 27 50  1  0  0  0  0
M  CHG  1  18   1
M  END
> <rseq>
1

> <mseq>
1

> <S>
-5.950536

> <rmsd>
6.830599

> <rmsd_refine>
3.080434

> <E_conf>
-4.242856

> <E_place>
-63.30959

> <E_score1>
-8.851695

> <E_refine>
-27.93785

> <E_score2>
-5.950536

> <PLIF_pronum>
1

>  <PLIF_raw>
[[9,17,10,18,11,10,19,20,21,22,18,10,19,20,21,22,18,1,12,4,3,2,1,12,4,3,2,7,13,14,15,16,8],[684,684,684,684,684,684,684,684,684,684,684,844,844,844,844,844,844,1713,1713,1713,1713,1713,1709,1709,1709,1709,1709,1725,1725,1725,1725,1725,1725],[82,82,82,82,82,82,82,82,82,82,82,92,92,92,92,92,92,145,145,145,145,145,145,145,145,145,145,146,146,146,146,146,146],[10,10,10,10,10,10,10,10,10,10,10,10,10,10,10,10,10,10,10,10,10,10,10,10,10,10,10,10,10,10,10,10,10],[1.2,1.2,1.2,1.2,1.2,1,1,1,1,1,1,0.6,0.6,0.6,0.6,0.6,0.6,0.5,0.5,0.5,0.5,0.5,0.6,0.6,0.6,0.6,0.6,0.8,0.8,0.8,0.8,0.8,0.8]]

> <FP:PLIF>
4 14 1 15 7

>  <PLIF_ligidx>
[[9,17,10,18,11,10,19,20,21,22,18],[9,17,10,18,11,10,19,20,21,22,18],[10,19,20,21,22,18],[1,12,4,3,2,1,12,4,3,2],[7,13,14,15,16,8]]

$$$$
4wiv_ligand
  MOE2018           3D
4wiv_ligand
 51 54  0  0  0  0  0  0  0  0999 V2000
   17.3860    1.1800  -12.8960 O   0  0  0  0  0  0  0  0  0  0  0  0
   16.2740    0.4660  -12.7610 C   0  0  0  0  0  0  0  0  0  0  0  0
   16.6230   -0.8230  -12.5550 C   0  0  0  0  0  0  0  0  0  0  0  0
   18.0200   -0.8100  -12.6090 C   0  0  0  0  0  0  0  0  0  0  0  0
   18.9540   -1.9810  -12.4910 C   0  0  0  0  0  0  0  0  0  0  0  0
   14.9430    1.1570  -12.8890 C   0  0  0  0  0  0  0  0  0  0  0  0
   15.7280   -1.9680  -12.3660 C   0  0  0  0  0  0  0  0  0  0  0  0
   15.1770   -2.6100  -13.4770 C   0  0  0  0  0  0  0  0  0  0  0  0
   12.9270   -5.2260  -11.9530 C   0  0  0  0  0  0  0  0  0  0  0  0
   11.3370   -6.5480  -12.8150 C   0  0  0  0  0  0  0  0  0  0  0  0
   12.7170   -6.2770  -11.0950 C   0  0  0  0  0  0  0  0  0  0  0  0
   18.4530    0.3870  -12.8010 N   0  0  0  0  0  0  0  0  0  0  0  0
   15.3820   -2.4510  -11.0950 C   0  0  0  0  0  0  0  0  0  0  0  0
   14.4980   -3.5190  -10.9410 C   0  0  0  0  0  0  0  0  0  0  0  0
   13.9100   -4.1410  -12.0560 C   0  0  0  0  0  0  0  0  0  0  0  0
   14.2930   -3.6680  -13.3250 C   0  0  0  0  0  0  0  0  0  0  0  0
   12.0170   -5.4250  -12.9610 N   0  0  0  0  0  0  0  0  0  0  0  0
   11.7650   -7.1010  -11.6680 N   0  3  0  0  0  0  0  0  0  0  0  0
   10.4350   -7.1900  -13.6960 C   0  0  0  0  0  0  0  0  0  0  0  0
   10.0530   -8.4030  -13.4520 N   0  0  0  0  0  0  0  0  0  0  0  0
   10.5100   -8.9980  -12.2930 C   0  0  0  0  0  0  0  0  0  0  0  0
   11.2930   -8.3600  -11.3630 C   0  0  0  0  0  0  0  0  0  0  0  0
   13.3040   -6.5660   -9.8580 N   0  0  0  0  0  0  0  0  0  0  0  0
   14.4080   -7.5240   -9.7410 C   0  0  0  0  0  0  0  0  0  0  0  0
   15.2820   -7.0080   -8.5880 C   0  0  0  0  0  0  0  0  0  0  0  0
   13.9440   -8.9310   -9.3750 C   0  0  0  0  0  0  0  0  0  0  0  0
   15.1590   -7.6650  -11.0570 C   0  0  0  0  0  0  0  0  0  0  0  0
   19.3430   -2.0010  -11.4760 H   0  0  0  0  0  0  0  0  0  0  0  0
   19.7670   -1.8300  -13.2000 H   0  0  0  0  0  0  0  0  0  0  0  0
   18.3950   -2.8820  -12.7360 H   0  0  0  0  0  0  0  0  0  0  0  0
   14.8400    1.4990  -13.9180 H   0  0  0  0  0  0  0  0  0  0  0  0
   14.9450    2.0100  -12.2120 H   0  0  0  0  0  0  0  0  0  0  0  0
   14.1610    0.4450  -12.6300 H   0  0  0  0  0  0  0  0  0  0  0  0
   15.4340   -2.2780  -14.4510 H   0  0  0  0  0  0  0  0  0  0  0  0
   15.7980   -1.9890  -10.2370 H   0  0  0  0  0  0  0  0  0  0  0  0
   14.2550   -3.8530   -9.9660 H   0  0  0  0  0  0  0  0  0  0  0  0
   13.8890   -4.1130  -14.1970 H   0  0  0  0  0  0  0  0  0  0  0  0
   10.1030   -6.6960  -14.5740 H   0  0  0  0  0  0  0  0  0  0  0  0
   10.2140   -9.9940  -12.1540 H   0  0  0  0  0  0  0  0  0  0  0  0
   11.5930   -8.7560  -10.4310 H   0  0  0  0  0  0  0  0  0  0  0  0
   13.6470   -5.6970   -9.4240 H   0  0  0  0  0  0  0  0  0  0  0  0
   16.1660   -7.6320   -8.4670 H   0  0  0  0  0  0  0  0  0  0  0  0
   14.7150   -7.0310   -7.6560 H   0  0  0  0  0  0  0  0  0  0  0  0
   15.5870   -5.9790   -8.7760 H   0  0  0  0  0  0  0  0  0  0  0  0
   14.7790   -9.5090   -8.9750 H   0  0  0  0  0  0  0  0  0  0  0  0
   13.5620   -9.4710  -10.2390 H   0  0  0  0  0  0  0  0  0  0  0  0
   13.1680   -8.8490   -8.6290 H   0  0  0  0  0  0  0  0  0  0  0  0
   16.0920   -8.2060  -10.9080 H   0  0  0  0  0  0  0  0  0  0  0  0
   15.3470   -6.6770  -11.4610 H   0  0  0  0  0  0  0  0  0  0  0  0
   14.5570   -8.2150  -11.7790 H   0  0  0  0  0  0  0  0  0  0  0  0
   11.8910   -4.7880  -13.7690 H   0  0  0  0  0  0  0  0  0  0  0  0
  1  2  1  0  0  0  0
  1 12  1  0  0  0  0
  2  3  2  0  0  0  0
  2  6  1  0  0  0  0
  3  4  1  0  0  0  0
  3  7  1  0  0  0  0
  4  5  1  0  0  0  0
  4 12  2  0  0  0  0
  5 28  1  0  0  0  0
  5 29  1  0  0  0  0
  5 30  1  0  0  0  0
  6 31  1  0  0  0  0
  6 32  1  0  0  0  0
  6 33  1  0  0  0  0
  7  8  1  0  0  0  0
  7 13  2  0  0  0  0
  8 16  2  0  0  0  0
  8 34  1  0  0  0  0
  9 11  2  0  0  0  0
  9 15  1  0  0  0  0
  9 17  1  0  0  0  0
 10 17  1  0  0  0  0
 10 18  1  0  0  0  0
 10 19  2  0  0  0  0
 11 18  1  0  0  0  0
 11 23  1  0  0  0  0
 13 14  1  0  0  0  0
 13 35  1  0  0  0  0
 14 15  2  0  0  0  0
 14 36  1  0  0  0  0
 15 16  1  0  0  0  0
 16 37  1  0  0  0  0
 17 51  1  0  0  0  0
 18 22  2  0  0  0  0
 19 20  1  0  0  0  0
 19 38  1  0  0  0  0
 20 21  2  0  0  0  0
 21 22  1  0  0  0  0
 21 39  1  0  0  0  0
 22 40  1  0  0  0  0
 23 24  1  0  0  0  0
 23 41  1  0  0  0  0
 24 25  1  0  0  0  0
 24 26  1  0  0  0  0
 24 27  1  0  0  0  0
 25 42  1  0  0  0  0
 25 43  1  0  0  0  0
 25 44  1  0  0  0  0
 26 45  1  0  0  0  0
 26 46  1  0  0  0  0
 26 47  1  0  0  0  0
 27 48  1  0  0  0  0
 27 49  1  0  0  0  0
 27 50  1  0  0  0  0
M  CHG  1  18   1
M  END
> <rseq>
1

> <mseq>
1

> <S>
-5.932763

> <rmsd>
8.463472

> <rmsd_refine>
1.332203

> <E_conf>
-1.012884

> <E_place>
-41.92043

> <E_score1>
-8.240244

> <E_refine>
-20.58775

> <E_score2>
-5.932763

> <PLIF_pronum>
1

>  <PLIF_raw>
[[17,7,13,14,15,16,8],[683,844,844,844,844,844,844],[82,92,92,92,92,92,92],[3,10,10,10,10,10,10],[0.9,0.6,0.6,0.6,0.6,0.6,0.6]]

> <FP:PLIF>
2 1

>  <PLIF_ligidx>
[17,[7,13,14,15,16,8]]

$$$$
4wiv_ligand
  MOE2018           3D
4wiv_ligand
 51 54  0  0  0  0  0  0  0  0999 V2000
   12.5920   -7.8640  -10.4340 O   0  0  0  0  0  0  0  0  0  0  0  0
   13.4760   -6.8770  -10.5040 C   0  0  0  0  0  0  0  0  0  0  0  0
   13.0030   -5.9410  -11.3650 C   0  0  0  0  0  0  0  0  0  0  0  0
   11.7470   -6.4480  -11.7480 C   0  0  0  0  0  0  0  0  0  0  0  0
   10.7000   -5.8530  -12.6590 C   0  0  0  0  0  0  0  0  0  0  0  0
   14.7520   -7.0430   -9.7170 C   0  0  0  0  0  0  0  0  0  0  0  0
   13.7260   -4.7580  -11.8710 C   0  0  0  0  0  0  0  0  0  0  0  0
   13.7260   -4.4690  -13.2390 C   0  0  0  0  0  0  0  0  0  0  0  0
   16.4480   -1.9470  -13.6520 C   0  0  0  0  0  0  0  0  0  0  0  0
   17.4720   -1.0330  -15.4260 C   0  0  0  0  0  0  0  0  0  0  0  0
   17.5830   -1.3010  -13.2230 C   0  0  0  0  0  0  0  0  0  0  0  0
   11.5340   -7.5880  -11.1890 N   0  0  0  0  0  0  0  0  0  0  0  0
   14.4960   -3.9150  -11.0550 C   0  0  0  0  0  0  0  0  0  0  0  0
   15.3400   -2.9490  -11.6060 C   0  0  0  0  0  0  0  0  0  0  0  0
   15.4410   -2.7780  -12.9980 C   0  0  0  0  0  0  0  0  0  0  0  0
   14.5450   -3.5030  -13.7870 C   0  0  0  0  0  0  0  0  0  0  0  0
   16.4130   -1.7370  -15.0170 N   0  0  0  0  0  0  0  0  0  0  0  0
   18.2250   -0.8030  -14.3340 N   0  3  0  0  0  0  0  0  0  0  0  0
   17.8620   -0.5810  -16.7120 C   0  0  0  0  0  0  0  0  0  0  0  0
   18.9980    0.0280  -16.8750 N   0  0  0  0  0  0  0  0  0  0  0  0
   19.8200    0.1970  -15.7710 C   0  0  0  0  0  0  0  0  0  0  0  0
   19.4690   -0.2220  -14.5120 C   0  0  0  0  0  0  0  0  0  0  0  0
   18.1160   -1.1250  -11.9340 N   0  0  0  0  0  0  0  0  0  0  0  0
   17.9630    0.1830  -11.2540 C   0  0  0  0  0  0  0  0  0  0  0  0
   17.6030   -0.1040   -9.7870 C   0  0  0  0  0  0  0  0  0  0  0  0
   19.2940    0.9530  -11.2590 C   0  0  0  0  0  0  0  0  0  0  0  0
   16.8540    1.0590  -11.8740 C   0  0  0  0  0  0  0  0  0  0  0  0
    9.9010   -6.5830  -12.7730 H   0  0  0  0  0  0  0  0  0  0  0  0
   11.1200   -5.6490  -13.6390 H   0  0  0  0  0  0  0  0  0  0  0  0
   10.3190   -4.9500  -12.1850 H   0  0  0  0  0  0  0  0  0  0  0  0
   15.1470   -6.0660   -9.4520 H   0  0  0  0  0  0  0  0  0  0  0  0
   15.4490   -7.6050  -10.3390 H   0  0  0  0  0  0  0  0  0  0  0  0
   14.5230   -7.6070   -8.8120 H   0  0  0  0  0  0  0  0  0  0  0  0
   13.0870   -4.9890  -13.8960 H   0  0  0  0  0  0  0  0  0  0  0  0
   14.4560   -4.0290  -10.0030 H   0  0  0  0  0  0  0  0  0  0  0  0
   15.9300   -2.3580  -10.9600 H   0  0  0  0  0  0  0  0  0  0  0  0
   14.4960   -3.3460  -14.8320 H   0  0  0  0  0  0  0  0  0  0  0  0
   17.2280   -0.7440  -17.5450 H   0  0  0  0  0  0  0  0  0  0  0  0
   20.7560    0.6590  -15.9480 H   0  0  0  0  0  0  0  0  0  0  0  0
   20.0730   -0.1560  -13.6450 H   0  0  0  0  0  0  0  0  0  0  0  0
   17.7410   -1.8360  -11.2890 H   0  0  0  0  0  0  0  0  0  0  0  0
   18.3790   -0.7140   -9.3220 H   0  0  0  0  0  0  0  0  0  0  0  0
   17.5120    0.8300   -9.2290 H   0  0  0  0  0  0  0  0  0  0  0  0
   16.6540   -0.6330   -9.7230 H   0  0  0  0  0  0  0  0  0  0  0  0
   19.2410    1.7950  -10.5670 H   0  0  0  0  0  0  0  0  0  0  0  0
   19.5000    1.3570  -12.2480 H   0  0  0  0  0  0  0  0  0  0  0  0
   20.1100    0.2970  -10.9540 H   0  0  0  0  0  0  0  0  0  0  0  0
   16.6990    1.9510  -11.2660 H   0  0  0  0  0  0  0  0  0  0  0  0
   15.9180    0.5030  -11.9300 H   0  0  0  0  0  0  0  0  0  0  0  0
   17.1350    1.3780  -12.8790 H   0  0  0  0  0  0  0  0  0  0  0  0
   15.6970   -2.1060  -15.6690 H   0  0  0  0  0  0  0  0  0  0  0  0
  1  2  1  0  0  0  0
  1 12  1  0  0  0  0
  2  3  2  0  0  0  0
  2  6  1  0  0  0  0
  3  4  1  0  0  0  0
  3  7  1  0  0  0  0
  4  5  1  0  0  0  0
  4 12  2  0  0  0  0
  5 28  1  0  0  0  0
  5 29  1  0  0  0  0
  5 30  1  0  0  0  0
  6 31  1  0  0  0  0
  6 32  1  0  0  0  0
  6 33  1  0  0  0  0
  7  8  1  0  0  0  0
  7 13  2  0  0  0  0
  8 16  2  0  0  0  0
  8 34  1  0  0  0  0
  9 11  2  0  0  0  0
  9 15  1  0  0  0  0
  9 17  1  0  0  0  0
 10 17  1  0  0  0  0
 10 18  1  0  0  0  0
 10 19  2  0  0  0  0
 11 18  1  0  0  0  0
 11 23  1  0  0  0  0
 13 14  1  0  0  0  0
 13 35  1  0  0  0  0
 14 15  2  0  0  0  0
 14 36  1  0  0  0  0
 15 16  1  0  0  0  0
 16 37  1  0  0  0  0
 17 51  1  0  0  0  0
 18 22  2  0  0  0  0
 19 20  1  0  0  0  0
 19 38  1  0  0  0  0
 20 21  2  0  0  0  0
 21 22  1  0  0  0  0
 21 39  1  0  0  0  0
 22 40  1  0  0  0  0
 23 24  1  0  0  0  0
 23 41  1  0  0  0  0
 24 25  1  0  0  0  0
 24 26  1  0  0  0  0
 24 27  1  0  0  0  0
 25 42  1  0  0  0  0
 25 43  1  0  0  0  0
 25 44  1  0  0  0  0
 26 45  1  0  0  0  0
 26 46  1  0  0  0  0
 26 47  1  0  0  0  0
 27 48  1  0  0  0  0
 27 49  1  0  0  0  0
 27 50  1  0  0  0  0
M  CHG  1  18   1
M  END
> <rseq>
1

> <mseq>
1

> <S>
-5.929984

> <rmsd>
5.67907

> <rmsd_refine>
2.07034

> <E_conf>
-2.876935

> <E_place>
-52.01738

> <E_score1>
-9.251585

> <E_refine>
-27.37692

> <E_score2>
-5.929984

> <PLIF_pronum>
1

>  <PLIF_raw>
[17,751,86,3,1.3]

> <FP:PLIF>
16

>  <PLIF_ligidx>
17

$$$$
4wiv_ligand
  MOE2018           3D
4wiv_ligand
 51 54  0  0  0  0  0  0  0  0999 V2000
   16.9610    0.6950  -15.4850 O   0  0  0  0  0  0  0  0  0  0  0  0
   16.6250   -0.5470  -15.1600 C   0  0  0  0  0  0  0  0  0  0  0  0
   15.8860   -0.5200  -14.0310 C   0  0  0  0  0  0  0  0  0  0  0  0
   15.8020    0.8520  -13.7460 C   0  0  0  0  0  0  0  0  0  0  0  0
   15.0550    1.5100  -12.6340 C   0  0  0  0  0  0  0  0  0  0  0  0
   17.0980   -1.6350  -16.0640 C   0  0  0  0  0  0  0  0  0  0  0  0
   15.3010   -1.6570  -13.2830 C   0  0  0  0  0  0  0  0  0  0  0  0
   15.2640   -1.6460  -11.8850 C   0  0  0  0  0  0  0  0  0  0  0  0
   13.9260   -5.0580  -10.9820 C   0  0  0  0  0  0  0  0  0  0  0  0
   14.6240   -6.3930   -9.3220 C   0  0  0  0  0  0  0  0  0  0  0  0
   13.3460   -6.3120  -11.1400 C   0  0  0  0  0  0  0  0  0  0  0  0
   16.4480    1.5480  -14.6100 N   0  0  0  0  0  0  0  0  0  0  0  0
   14.7560   -2.7870  -13.9170 C   0  0  0  0  0  0  0  0  0  0  0  0
   14.2430   -3.8610  -13.1870 C   0  0  0  0  0  0  0  0  0  0  0  0
   14.2380   -3.8630  -11.7850 C   0  0  0  0  0  0  0  0  0  0  0  0
   14.7230   -2.6980  -11.1590 C   0  0  0  0  0  0  0  0  0  0  0  0
   14.5890   -5.1410   -9.7730 N   0  0  0  0  0  0  0  0  0  0  0  0
   13.9180   -7.1300  -10.1930 N   0  3  0  0  0  0  0  0  0  0  0  0
   15.3140   -6.9760   -8.2300 C   0  0  0  0  0  0  0  0  0  0  0  0
   15.3710   -8.2670   -8.1110 N   0  0  0  0  0  0  0  0  0  0  0  0
   14.7250   -9.0460   -9.0590 C   0  0  0  0  0  0  0  0  0  0  0  0
   13.9820   -8.5120  -10.0810 C   0  0  0  0  0  0  0  0  0  0  0  0
   12.3610   -6.9890  -11.9160 N   0  0  0  0  0  0  0  0  0  0  0  0
   11.0830   -6.5680  -12.5140 C   0  0  0  0  0  0  0  0  0  0  0  0
   11.1060   -6.1350  -13.9910 C   0  0  0  0  0  0  0  0  0  0  0  0
   10.1770   -7.8130  -12.4710 C   0  0  0  0  0  0  0  0  0  0  0  0
   10.5040   -5.4470  -11.6890 C   0  0  0  0  0  0  0  0  0  0  0  0
   14.6440    2.4550  -12.9920 H   0  0  0  0  0  0  0  0  0  0  0  0
   15.7430    1.6690  -11.8050 H   0  0  0  0  0  0  0  0  0  0  0  0
   14.2610    0.8140  -12.3890 H   0  0  0  0  0  0  0  0  0  0  0  0
   17.0750   -2.5700  -15.5070 H   0  0  0  0  0  0  0  0  0  0  0  0
   18.1040   -1.3410  -16.3600 H   0  0  0  0  0  0  0  0  0  0  0  0
   16.4670   -1.6830  -16.9460 H   0  0  0  0  0  0  0  0  0  0  0  0
   15.6730   -0.8220  -11.3630 H   0  0  0  0  0  0  0  0  0  0  0  0
   14.7360   -2.8310  -14.9740 H   0  0  0  0  0  0  0  0  0  0  0  0
   13.8650   -4.6970  -13.7050 H   0  0  0  0  0  0  0  0  0  0  0  0
   14.7110   -2.6210  -10.1020 H   0  0  0  0  0  0  0  0  0  0  0  0
   15.8090   -6.3590   -7.5240 H   0  0  0  0  0  0  0  0  0  0  0  0
   14.8320  -10.0940   -8.9610 H   0  0  0  0  0  0  0  0  0  0  0  0
   13.4660   -9.0660  -10.8230 H   0  0  0  0  0  0  0  0  0  0  0  0
   12.2830   -7.9780  -11.6460 H   0  0  0  0  0  0  0  0  0  0  0  0
   10.1720   -5.6430  -14.2540 H   0  0  0  0  0  0  0  0  0  0  0  0
   11.1360   -7.0030  -14.6420 H   0  0  0  0  0  0  0  0  0  0  0  0
   11.9240   -5.4540  -14.2000 H   0  0  0  0  0  0  0  0  0  0  0  0
    9.2230   -7.6120  -12.9550 H   0  0  0  0  0  0  0  0  0  0  0  0
   10.0050   -8.1200  -11.4400 H   0  0  0  0  0  0  0  0  0  0  0  0
   10.6550   -8.6400  -12.9990 H   0  0  0  0  0  0  0  0  0  0  0  0
    9.8720   -4.7960  -12.2770 H   0  0  0  0  0  0  0  0  0  0  0  0
   11.2900   -4.8280  -11.2750 H   0  0  0  0  0  0  0  0  0  0  0  0
    9.9140   -5.9120  -10.9120 H   0  0  0  0  0  0  0  0  0  0  0  0
   15.1070   -4.3680   -9.3210 H   0  0  0  0  0  0  0  0  0  0  0  0
  1  2  1  0  0  0  0
  1 12  1  0  0  0  0
  2  3  2  0  0  0  0
  2  6  1  0  0  0  0
  3  4  1  0  0  0  0
  3  7  1  0  0  0  0
  4  5  1  0  0  0  0
  4 12  2  0  0  0  0
  5 28  1  0  0  0  0
  5 29  1  0  0  0  0
  5 30  1  0  0  0  0
  6 31  1  0  0  0  0
  6 32  1  0  0  0  0
  6 33  1  0  0  0  0
  7  8  1  0  0  0  0
  7 13  2  0  0  0  0
  8 16  2  0  0  0  0
  8 34  1  0  0  0  0
  9 11  2  0  0  0  0
  9 15  1  0  0  0  0
  9 17  1  0  0  0  0
 10 17  1  0  0  0  0
 10 18  1  0  0  0  0
 10 19  2  0  0  0  0
 11 18  1  0  0  0  0
 11 23  1  0  0  0  0
 13 14  1  0  0  0  0
 13 35  1  0  0  0  0
 14 15  2  0  0  0  0
 14 36  1  0  0  0  0
 15 16  1  0  0  0  0
 16 37  1  0  0  0  0
 17 51  1  0  0  0  0
 18 22  2  0  0  0  0
 19 20  1  0  0  0  0
 19 38  1  0  0  0  0
 20 21  2  0  0  0  0
 21 22  1  0  0  0  0
 21 39  1  0  0  0  0
 22 40  1  0  0  0  0
 23 24  1  0  0  0  0
 23 41  1  0  0  0  0
 24 25  1  0  0  0  0
 24 26  1  0  0  0  0
 24 27  1  0  0  0  0
 25 42  1  0  0  0  0
 25 43  1  0  0  0  0
 25 44  1  0  0  0  0
 26 45  1  0  0  0  0
 26 46  1  0  0  0  0
 26 47  1  0  0  0  0
 27 48  1  0  0  0  0
 27 49  1  0  0  0  0
 27 50  1  0  0  0  0
M  CHG  1  18   1
M  END
> <rseq>
1

> <mseq>
1

> <S>
-5.871909

> <rmsd>
8.002525

> <rmsd_refine>
1.65241

> <E_conf>
12.04636

> <E_place>
-53.19019

> <E_score1>
-9.50317

> <E_refine>
-16.85328

> <E_score2>
-5.871909

> <PLIF_pronum>
1

>  <PLIF_raw>
[[7,13,14,15,16,8,9,17,10,18,11,10,19,20,21,22,18],[844,844,844,844,844,844,1726,1726,1726,1726,1726,1726,1726,1726,1726,1726,1726],[92,92,92,92,92,92,146,146,146,146,146,146,146,146,146,146,146],[10,10,10,10,10,10,10,10,10,10,10,10,10,10,10,10,10],[0.6,0.6,0.6,0.6,0.6,0.6,0.5,0.5,0.5,0.5,0.5,0.5,0.5,0.5,0.5,0.5,0.5]]

> <FP:PLIF>
1 7

>  <PLIF_ligidx>
[[7,13,14,15,16,8],[9,17,10,18,11,10,19,20,21,22,18]]

$$$$
4wiv_ligand
  MOE2018           3D
4wiv_ligand
 51 54  0  0  0  0  0  0  0  0999 V2000
   12.1090   -5.4720  -12.2860 O   0  0  0  0  0  0  0  0  0  0  0  0
   13.1210   -5.5130  -11.4250 C   0  0  0  0  0  0  0  0  0  0  0  0
   13.0550   -6.6930  -10.7720 C   0  0  0  0  0  0  0  0  0  0  0  0
   11.9540   -7.3470  -11.3380 C   0  0  0  0  0  0  0  0  0  0  0  0
   11.4400   -8.7280  -11.0100 C   0  0  0  0  0  0  0  0  0  0  0  0
   14.1100   -4.3720  -11.3840 C   0  0  0  0  0  0  0  0  0  0  0  0
   13.9020   -7.1760   -9.6840 C   0  0  0  0  0  0  0  0  0  0  0  0
   14.0810   -6.4130   -8.5240 C   0  0  0  0  0  0  0  0  0  0  0  0
   15.9090   -8.8060   -6.2630 C   0  0  0  0  0  0  0  0  0  0  0  0
   16.3570  -10.4470   -4.8050 C   0  0  0  0  0  0  0  0  0  0  0  0
   16.5340   -8.2650   -5.1690 C   0  0  0  0  0  0  0  0  0  0  0  0
   11.3980   -6.6000  -12.2250 N   0  0  0  0  0  0  0  0  0  0  0  0
   14.5030   -8.4370   -9.7390 C   0  0  0  0  0  0  0  0  0  0  0  0
   15.1870   -8.9480   -8.6440 C   0  0  0  0  0  0  0  0  0  0  0  0
   15.3020   -8.2180   -7.4510 C   0  0  0  0  0  0  0  0  0  0  0  0
   14.7630   -6.9230   -7.4280 C   0  0  0  0  0  0  0  0  0  0  0  0
   15.8630  -10.1610   -6.0160 N   0  0  0  0  0  0  0  0  0  0  0  0
   16.7610   -9.2790   -4.2720 N   0  3  0  0  0  0  0  0  0  0  0  0
   16.4670  -11.6670   -4.0880 C   0  0  0  0  0  0  0  0  0  0  0  0
   16.9470  -11.6760   -2.8790 N   0  0  0  0  0  0  0  0  0  0  0  0
   17.3340  -10.4710   -2.3080 C   0  0  0  0  0  0  0  0  0  0  0  0
   17.2450   -9.2740   -2.9740 C   0  0  0  0  0  0  0  0  0  0  0  0
   16.9010   -6.9440   -4.8660 N   0  0  0  0  0  0  0  0  0  0  0  0
   18.2490   -6.5010   -5.2690 C   0  0  0  0  0  0  0  0  0  0  0  0
   18.4160   -6.6150   -6.7920 C   0  0  0  0  0  0  0  0  0  0  0  0
   18.3830   -5.0230   -4.8760 C   0  0  0  0  0  0  0  0  0  0  0  0
   19.3660   -7.2970   -4.5720 C   0  0  0  0  0  0  0  0  0  0  0  0
   10.5020   -8.8860  -11.5420 H   0  0  0  0  0  0  0  0  0  0  0  0
   11.2810   -8.7800   -9.9350 H   0  0  0  0  0  0  0  0  0  0  0  0
   12.1820   -9.4570  -11.3320 H   0  0  0  0  0  0  0  0  0  0  0  0
   13.5800   -3.4430  -11.5850 H   0  0  0  0  0  0  0  0  0  0  0  0
   14.8410   -4.5480  -12.1720 H   0  0  0  0  0  0  0  0  0  0  0  0
   14.5910   -4.3410  -10.4070 H   0  0  0  0  0  0  0  0  0  0  0  0
   13.6620   -5.4410   -8.4700 H   0  0  0  0  0  0  0  0  0  0  0  0
   14.4240   -9.0180  -10.6220 H   0  0  0  0  0  0  0  0  0  0  0  0
   15.6130   -9.9130   -8.7110 H   0  0  0  0  0  0  0  0  0  0  0  0
   14.8480   -6.3310   -6.5550 H   0  0  0  0  0  0  0  0  0  0  0  0
   16.1520  -12.5740   -4.5380 H   0  0  0  0  0  0  0  0  0  0  0  0
   17.7040  -10.5110   -1.3160 H   0  0  0  0  0  0  0  0  0  0  0  0
   17.5080   -8.3230   -2.5850 H   0  0  0  0  0  0  0  0  0  0  0  0
   16.2510   -6.2830   -5.3150 H   0  0  0  0  0  0  0  0  0  0  0  0
   19.3720   -6.1840   -7.0930 H   0  0  0  0  0  0  0  0  0  0  0  0
   17.6080   -6.0860   -7.2970 H   0  0  0  0  0  0  0  0  0  0  0  0
   18.4010   -7.6590   -7.0990 H   0  0  0  0  0  0  0  0  0  0  0  0
   19.3650   -4.6420   -5.1610 H   0  0  0  0  0  0  0  0  0  0  0  0
   18.2620   -4.9120   -3.7970 H   0  0  0  0  0  0  0  0  0  0  0  0
   17.6170   -4.4290   -5.3770 H   0  0  0  0  0  0  0  0  0  0  0  0
   20.3400   -6.9070   -4.8710 H   0  0  0  0  0  0  0  0  0  0  0  0
   19.3230   -8.3490   -4.8550 H   0  0  0  0  0  0  0  0  0  0  0  0
   19.2760   -7.2050   -3.4900 H   0  0  0  0  0  0  0  0  0  0  0  0
   15.4120  -10.8670   -6.6270 H   0  0  0  0  0  0  0  0  0  0  0  0
  1  2  1  0  0  0  0
  1 12  1  0  0  0  0
  2  3  2  0  0  0  0
  2  6  1  0  0  0  0
  3  4  1  0  0  0  0
  3  7  1  0  0  0  0
  4  5  1  0  0  0  0
  4 12  2  0  0  0  0
  5 28  1  0  0  0  0
  5 29  1  0  0  0  0
  5 30  1  0  0  0  0
  6 31  1  0  0  0  0
  6 32  1  0  0  0  0
  6 33  1  0  0  0  0
  7  8  1  0  0  0  0
  7 13  2  0  0  0  0
  8 16  2  0  0  0  0
  8 34  1  0  0  0  0
  9 11  2  0  0  0  0
  9 15  1  0  0  0  0
  9 17  1  0  0  0  0
 10 17  1  0  0  0  0
 10 18  1  0  0  0  0
 10 19  2  0  0  0  0
 11 18  1  0  0  0  0
 11 23  1  0  0  0  0
 13 14  1  0  0  0  0
 13 35  1  0  0  0  0
 14 15  2  0  0  0  0
 14 36  1  0  0  0  0
 15 16  1  0  0  0  0
 16 37  1  0  0  0  0
 17 51  1  0  0  0  0
 18 22  2  0  0  0  0
 19 20  1  0  0  0  0
 19 38  1  0  0  0  0
 20 21  2  0  0  0  0
 21 22  1  0  0  0  0
 21 39  1  0  0  0  0
 22 40  1  0  0  0  0
 23 24  1  0  0  0  0
 23 41  1  0  0  0  0
 24 25  1  0  0  0  0
 24 26  1  0  0  0  0
 24 27  1  0  0  0  0
 25 42  1  0  0  0  0
 25 43  1  0  0  0  0
 25 44  1  0  0  0  0
 26 45  1  0  0  0  0
 26 46  1  0  0  0  0
 26 47  1  0  0  0  0
 27 48  1  0  0  0  0
 27 49  1  0  0  0  0
 27 50  1  0  0  0  0
M  CHG  1  18   1
M  END
> <rseq>
1

> <mseq>
1

> <S>
-5.869325

> <rmsd>
6.855006

> <rmsd_refine>
3.866597

> <E_conf>
-11.07306

> <E_place>
-37.58772

> <E_score1>
-8.060326

> <E_refine>
-30.84212

> <E_score2>
-5.869325

> <PLIF_pronum>
1

>  <PLIF_raw>
[17,1656,140,1,2.2]

> <FP:PLIF>
17 18

>  <PLIF_ligidx>
[17,17]

$$$$
4wiv_ligand
  MOE2018           3D
4wiv_ligand
 51 54  0  0  0  0  0  0  0  0999 V2000
   13.2590   -5.3960  -11.6440 O   0  0  0  0  0  0  0  0  0  0  0  0
   13.4050   -6.4000  -10.7830 C   0  0  0  0  0  0  0  0  0  0  0  0
   14.1050   -5.9370   -9.7260 C   0  0  0  0  0  0  0  0  0  0  0  0
   14.3440   -4.5910  -10.0180 C   0  0  0  0  0  0  0  0  0  0  0  0
   15.0690   -3.5850   -9.1540 C   0  0  0  0  0  0  0  0  0  0  0  0
   12.8310   -7.7670  -11.0830 C   0  0  0  0  0  0  0  0  0  0  0  0
   14.5140   -6.7010   -8.5540 C   0  0  0  0  0  0  0  0  0  0  0  0
   15.1460   -7.9390   -8.6950 C   0  0  0  0  0  0  0  0  0  0  0  0
   15.4850   -9.1070   -5.1260 C   0  0  0  0  0  0  0  0  0  0  0  0
   16.2400  -10.9470   -4.0950 C   0  0  0  0  0  0  0  0  0  0  0  0
   15.2330   -8.9910   -3.7780 C   0  0  0  0  0  0  0  0  0  0  0  0
   13.8410   -4.2920  -11.1650 N   0  0  0  0  0  0  0  0  0  0  0  0
   14.2640   -6.2340   -7.2610 C   0  0  0  0  0  0  0  0  0  0  0  0
   14.5870   -7.0000   -6.1500 C   0  0  0  0  0  0  0  0  0  0  0  0
   15.1880   -8.2620   -6.2820 C   0  0  0  0  0  0  0  0  0  0  0  0
   15.4810   -8.7000   -7.5860 C   0  0  0  0  0  0  0  0  0  0  0  0
   16.1250  -10.3210   -5.2710 N   0  0  0  0  0  0  0  0  0  0  0  0
   15.7000  -10.1340   -3.1690 N   0  3  0  0  0  0  0  0  0  0  0  0
   16.7740  -12.2170   -3.7530 C   0  0  0  0  0  0  0  0  0  0  0  0
   16.7230  -12.6430   -2.5240 N   0  0  0  0  0  0  0  0  0  0  0  0
   16.1290  -11.8310   -1.5690 C   0  0  0  0  0  0  0  0  0  0  0  0
   15.6170  -10.5930   -1.8630 C   0  0  0  0  0  0  0  0  0  0  0  0
   14.5360   -8.0090   -3.0450 N   0  0  0  0  0  0  0  0  0  0  0  0
   15.1990   -7.0760   -2.1070 C   0  0  0  0  0  0  0  0  0  0  0  0
   15.1070   -5.6610   -2.7020 C   0  0  0  0  0  0  0  0  0  0  0  0
   14.4180   -7.0820   -0.7830 C   0  0  0  0  0  0  0  0  0  0  0  0
   16.6900   -7.3760   -1.8520 C   0  0  0  0  0  0  0  0  0  0  0  0
   14.3710   -3.2210   -8.4000 H   0  0  0  0  0  0  0  0  0  0  0  0
   15.4100   -2.7630   -9.7840 H   0  0  0  0  0  0  0  0  0  0  0  0
   15.9190   -4.0820   -8.6850 H   0  0  0  0  0  0  0  0  0  0  0  0
   13.6040   -8.3570  -11.5750 H   0  0  0  0  0  0  0  0  0  0  0  0
   11.9660   -7.6420  -11.7350 H   0  0  0  0  0  0  0  0  0  0  0  0
   12.5360   -8.2360  -10.1450 H   0  0  0  0  0  0  0  0  0  0  0  0
   15.3710   -8.3040   -9.6640 H   0  0  0  0  0  0  0  0  0  0  0  0
   13.8030   -5.2900   -7.1270 H   0  0  0  0  0  0  0  0  0  0  0  0
   14.3580   -6.6180   -5.1940 H   0  0  0  0  0  0  0  0  0  0  0  0
   15.9510   -9.6360   -7.7390 H   0  0  0  0  0  0  0  0  0  0  0  0
   17.2110  -12.8240   -4.5030 H   0  0  0  0  0  0  0  0  0  0  0  0
   16.0780  -12.2150   -0.5820 H   0  0  0  0  0  0  0  0  0  0  0  0
   15.1380   -9.9450   -1.1770 H   0  0  0  0  0  0  0  0  0  0  0  0
   13.9380   -7.4430   -3.6630 H   0  0  0  0  0  0  0  0  0  0  0  0
   15.4870   -4.9270   -1.9900 H   0  0  0  0  0  0  0  0  0  0  0  0
   14.0690   -5.4150   -2.9320 H   0  0  0  0  0  0  0  0  0  0  0  0
   15.7010   -5.5970   -3.6140 H   0  0  0  0  0  0  0  0  0  0  0  0
   14.8470   -6.3570   -0.0900 H   0  0  0  0  0  0  0  0  0  0  0  0
   14.4520   -8.0670   -0.3220 H   0  0  0  0  0  0  0  0  0  0  0  0
   13.3760   -6.8190   -0.9620 H   0  0  0  0  0  0  0  0  0  0  0  0
   17.1250   -6.5850   -1.2390 H   0  0  0  0  0  0  0  0  0  0  0  0
   17.2380   -7.4210   -2.7940 H   0  0  0  0  0  0  0  0  0  0  0  0
   16.8140   -8.3120   -1.3140 H   0  0  0  0  0  0  0  0  0  0  0  0
   16.4400  -10.7330   -6.1650 H   0  0  0  0  0  0  0  0  0  0  0  0
  1  2  1  0  0  0  0
  1 12  1  0  0  0  0
  2  3  2  0  0  0  0
  2  6  1  0  0  0  0
  3  4  1  0  0  0  0
  3  7  1  0  0  0  0
  4  5  1  0  0  0  0
  4 12  2  0  0  0  0
  5 28  1  0  0  0  0
  5 29  1  0  0  0  0
  5 30  1  0  0  0  0
  6 31  1  0  0  0  0
  6 32  1  0  0  0  0
  6 33  1  0  0  0  0
  7  8  1  0  0  0  0
  7 13  2  0  0  0  0
  8 16  2  0  0  0  0
  8 34  1  0  0  0  0
  9 11  2  0  0  0  0
  9 15  1  0  0  0  0
  9 17  1  0  0  0  0
 10 17  1  0  0  0  0
 10 18  1  0  0  0  0
 10 19  2  0  0  0  0
 11 18  1  0  0  0  0
 11 23  1  0  0  0  0
 13 14  1  0  0  0  0
 13 35  1  0  0  0  0
 14 15  2  0  0  0  0
 14 36  1  0  0  0  0
 15 16  1  0  0  0  0
 16 37  1  0  0  0  0
 17 51  1  0  0  0  0
 18 22  2  0  0  0  0
 19 20  1  0  0  0  0
 19 38  1  0  0  0  0
 20 21  2  0  0  0  0
 21 22  1  0  0  0  0
 21 39  1  0  0  0  0
 22 40  1  0  0  0  0
 23 24  1  0  0  0  0
 23 41  1  0  0  0  0
 24 25  1  0  0  0  0
 24 26  1  0  0  0  0
 24 27  1  0  0  0  0
 25 42  1  0  0  0  0
 25 43  1  0  0  0  0
 25 44  1  0  0  0  0
 26 45  1  0  0  0  0
 26 46  1  0  0  0  0
 26 47  1  0  0  0  0
 27 48  1  0  0  0  0
 27 49  1  0  0  0  0
 27 50  1  0  0  0  0
M  CHG  1  18   1
M  END
> <rseq>
1

> <mseq>
1

> <S>
-5.842606

> <rmsd>
7.519854

> <rmsd_refine>
3.352097

> <E_conf>
-8.982598

> <E_place>
-63.52279

> <E_score1>
-9.173046

> <E_refine>
-31.69207

> <E_score2>
-5.842606

> <PLIF_pronum>
1

>  <PLIF_raw>
[[18,18,23],[1703,1704,1704],[144,144,144],[7,7,7],[0.6733434176,3.796815111,0.6108471204]]

> <FP:PLIF>
10 19

>  <PLIF_ligidx>
[[18,18,23],18]

$$$$
4wiv_ligand
  MOE2018           3D
4wiv_ligand
 51 54  0  0  0  0  0  0  0  0999 V2000
   17.7580   -1.6060  -14.3300 O   0  0  0  0  0  0  0  0  0  0  0  0
   17.7080   -1.6110  -13.0030 C   0  0  0  0  0  0  0  0  0  0  0  0
   16.4940   -2.0890  -12.6330 C   0  0  0  0  0  0  0  0  0  0  0  0
   15.8630   -2.3880  -13.8490 C   0  0  0  0  0  0  0  0  0  0  0  0
   14.4840   -2.9590  -14.0520 C   0  0  0  0  0  0  0  0  0  0  0  0
   18.9190   -1.1150  -12.2440 C   0  0  0  0  0  0  0  0  0  0  0  0
   15.9570   -2.2420  -11.2720 C   0  0  0  0  0  0  0  0  0  0  0  0
   15.0600   -3.2710  -10.9440 C   0  0  0  0  0  0  0  0  0  0  0  0
   14.4700   -2.7200   -7.2850 C   0  0  0  0  0  0  0  0  0  0  0  0
   13.2350   -2.1790   -5.5090 C   0  0  0  0  0  0  0  0  0  0  0  0
   14.8560   -3.5140   -6.2370 C   0  0  0  0  0  0  0  0  0  0  0  0
   16.6270   -2.0910  -14.8390 N   0  0  0  0  0  0  0  0  0  0  0  0
   16.3380   -1.3710  -10.2430 C   0  0  0  0  0  0  0  0  0  0  0  0
   15.8770   -1.5450   -8.9450 C   0  0  0  0  0  0  0  0  0  0  0  0
   14.9800   -2.5710   -8.6300 C   0  0  0  0  0  0  0  0  0  0  0  0
   14.5770   -3.4290   -9.6550 C   0  0  0  0  0  0  0  0  0  0  0  0
   13.4400   -1.9420   -6.8120 N   0  0  0  0  0  0  0  0  0  0  0  0
   14.1230   -3.1260   -5.1410 N   0  3  0  0  0  0  0  0  0  0  0  0
   12.3460   -1.5900   -4.5750 C   0  0  0  0  0  0  0  0  0  0  0  0
   12.4090   -1.9130   -3.3180 N   0  0  0  0  0  0  0  0  0  0  0  0
   13.3600   -2.8420   -2.9160 C   0  0  0  0  0  0  0  0  0  0  0  0
   14.2190   -3.4510   -3.7960 C   0  0  0  0  0  0  0  0  0  0  0  0
   15.8600   -4.4970   -6.1640 N   0  0  0  0  0  0  0  0  0  0  0  0
   15.4970   -5.9290   -6.2660 C   0  0  0  0  0  0  0  0  0  0  0  0
   16.8080   -6.7260   -6.3550 C   0  0  0  0  0  0  0  0  0  0  0  0
   14.7130   -6.4290   -5.0420 C   0  0  0  0  0  0  0  0  0  0  0  0
   14.6880   -6.2040   -7.5450 C   0  0  0  0  0  0  0  0  0  0  0  0
   14.1850   -2.8390  -15.0900 H   0  0  0  0  0  0  0  0  0  0  0  0
   13.8260   -2.4010  -13.3920 H   0  0  0  0  0  0  0  0  0  0  0  0
   14.4920   -4.0160  -13.7990 H   0  0  0  0  0  0  0  0  0  0  0  0
   18.8130   -0.0400  -12.1020 H   0  0  0  0  0  0  0  0  0  0  0  0
   19.8050   -1.3320  -12.8410 H   0  0  0  0  0  0  0  0  0  0  0  0
   18.9810   -1.6290  -11.2880 H   0  0  0  0  0  0  0  0  0  0  0  0
   14.7520   -3.9640  -11.6780 H   0  0  0  0  0  0  0  0  0  0  0  0
   16.9920   -0.5650  -10.4500 H   0  0  0  0  0  0  0  0  0  0  0  0
   16.2060   -0.8850   -8.1840 H   0  0  0  0  0  0  0  0  0  0  0  0
   13.8900   -4.2080   -9.4490 H   0  0  0  0  0  0  0  0  0  0  0  0
   11.6350   -0.8740   -4.9000 H   0  0  0  0  0  0  0  0  0  0  0  0
   13.4000   -3.0630   -1.8800 H   0  0  0  0  0  0  0  0  0  0  0  0
   14.9740   -4.1490   -3.5420 H   0  0  0  0  0  0  0  0  0  0  0  0
   16.5640   -4.3380   -6.9010 H   0  0  0  0  0  0  0  0  0  0  0  0
   16.5990   -7.7930   -6.4380 H   0  0  0  0  0  0  0  0  0  0  0  0
   17.4110   -6.5540   -5.4630 H   0  0  0  0  0  0  0  0  0  0  0  0
   17.3820   -6.4130   -7.2290 H   0  0  0  0  0  0  0  0  0  0  0  0
   14.5020   -7.4950   -5.1450 H   0  0  0  0  0  0  0  0  0  0  0  0
   13.7640   -5.9030   -4.9530 H   0  0  0  0  0  0  0  0  0  0  0  0
   15.2990   -6.2830   -4.1350 H   0  0  0  0  0  0  0  0  0  0  0  0
   14.4730   -7.2700   -7.6290 H   0  0  0  0  0  0  0  0  0  0  0  0
   15.2600   -5.8970   -8.4210 H   0  0  0  0  0  0  0  0  0  0  0  0
   13.7420   -5.6650   -7.5200 H   0  0  0  0  0  0  0  0  0  0  0  0
   12.9150   -1.2350   -7.3580 H   0  0  0  0  0  0  0  0  0  0  0  0
  1  2  1  0  0  0  0
  1 12  1  0  0  0  0
  2  3  2  0  0  0  0
  2  6  1  0  0  0  0
  3  4  1  0  0  0  0
  3  7  1  0  0  0  0
  4  5  1  0  0  0  0
  4 12  2  0  0  0  0
  5 28  1  0  0  0  0
  5 29  1  0  0  0  0
  5 30  1  0  0  0  0
  6 31  1  0  0  0  0
  6 32  1  0  0  0  0
  6 33  1  0  0  0  0
  7  8  1  0  0  0  0
  7 13  2  0  0  0  0
  8 16  2  0  0  0  0
  8 34  1  0  0  0  0
  9 11  2  0  0  0  0
  9 15  1  0  0  0  0
  9 17  1  0  0  0  0
 10 17  1  0  0  0  0
 10 18  1  0  0  0  0
 10 19  2  0  0  0  0
 11 18  1  0  0  0  0
 11 23  1  0  0  0  0
 13 14  1  0  0  0  0
 13 35  1  0  0  0  0
 14 15  2  0  0  0  0
 14 36  1  0  0  0  0
 15 16  1  0  0  0  0
 16 37  1  0  0  0  0
 17 51  1  0  0  0  0
 18 22  2  0  0  0  0
 19 20  1  0  0  0  0
 19 38  1  0  0  0  0
 20 21  2  0  0  0  0
 21 22  1  0  0  0  0
 21 39  1  0  0  0  0
 22 40  1  0  0  0  0
 23 24  1  0  0  0  0
 23 41  1  0  0  0  0
 24 25  1  0  0  0  0
 24 26  1  0  0  0  0
 24 27  1  0  0  0  0
 25 42  1  0  0  0  0
 25 43  1  0  0  0  0
 25 44  1  0  0  0  0
 26 45  1  0  0  0  0
 26 46  1  0  0  0  0
 26 47  1  0  0  0  0
 27 48  1  0  0  0  0
 27 49  1  0  0  0  0
 27 50  1  0  0  0  0
M  CHG  1  18   1
M  END
> <rseq>
1

> <mseq>
1

> <S>
-5.788861

> <rmsd>
5.658938

> <rmsd_refine>
1.648823

> <E_conf>
-7.247171

> <E_place>
-75.48083

> <E_score1>
-8.469707

> <E_refine>
-28.20135

> <E_score2>
-5.788861

$$$$
4wiv_ligand
  MOE2018           3D
4wiv_ligand
 51 54  0  0  0  0  0  0  0  0999 V2000
   12.5160   -7.5530  -10.6860 O   0  0  0  0  0  0  0  0  0  0  0  0
   12.5800   -6.3700  -11.2870 C   0  0  0  0  0  0  0  0  0  0  0  0
   13.6230   -5.6880  -10.7540 C   0  0  0  0  0  0  0  0  0  0  0  0
   14.0870   -6.5200   -9.7240 C   0  0  0  0  0  0  0  0  0  0  0  0
   15.1280   -6.2400   -8.6630 C   0  0  0  0  0  0  0  0  0  0  0  0
   11.5220   -6.0180  -12.3130 C   0  0  0  0  0  0  0  0  0  0  0  0
   14.1570   -4.4000  -11.2150 C   0  0  0  0  0  0  0  0  0  0  0  0
   14.5200   -3.3720  -10.3340 C   0  0  0  0  0  0  0  0  0  0  0  0
   15.4330   -0.6100  -12.7340 C   0  0  0  0  0  0  0  0  0  0  0  0
   15.0090    1.4890  -13.3800 C   0  0  0  0  0  0  0  0  0  0  0  0
   16.4770   -0.1660  -13.4960 C   0  0  0  0  0  0  0  0  0  0  0  0
   13.4400   -7.6320   -9.7270 N   0  0  0  0  0  0  0  0  0  0  0  0
   14.3390   -4.1680  -12.5840 C   0  0  0  0  0  0  0  0  0  0  0  0
   14.8020   -2.9560  -13.0630 C   0  0  0  0  0  0  0  0  0  0  0  0
   15.0970   -1.9090  -12.1890 C   0  0  0  0  0  0  0  0  0  0  0  0
   14.9860   -2.1510  -10.8110 C   0  0  0  0  0  0  0  0  0  0  0  0
   14.5750    0.4550  -12.6400 N   0  0  0  0  0  0  0  0  0  0  0  0
   16.1670    1.0950  -13.9370 N   0  3  0  0  0  0  0  0  0  0  0  0
   14.4580    2.7690  -13.6450 C   0  0  0  0  0  0  0  0  0  0  0  0
   15.0560    3.5830  -14.4660 N   0  0  0  0  0  0  0  0  0  0  0  0
   16.2290    3.1660  -15.0790 C   0  0  0  0  0  0  0  0  0  0  0  0
   16.7930    1.9380  -14.8390 C   0  0  0  0  0  0  0  0  0  0  0  0
   17.7010   -0.7640  -13.8000 N   0  0  0  0  0  0  0  0  0  0  0  0
   18.8810   -0.3490  -13.0160 C   0  0  0  0  0  0  0  0  0  0  0  0
   19.3250   -1.5510  -12.1770 C   0  0  0  0  0  0  0  0  0  0  0  0
   19.9940    0.0380  -13.9890 C   0  0  0  0  0  0  0  0  0  0  0  0
   18.6490    0.8280  -12.0390 C   0  0  0  0  0  0  0  0  0  0  0  0
   14.6020   -6.0490   -7.7280 H   0  0  0  0  0  0  0  0  0  0  0  0
   15.7190   -5.3700   -8.9380 H   0  0  0  0  0  0  0  0  0  0  0  0
   15.7610   -7.1220   -8.5610 H   0  0  0  0  0  0  0  0  0  0  0  0
   11.9750   -5.5210  -13.1660 H   0  0  0  0  0  0  0  0  0  0  0  0
   10.7980   -5.3590  -11.8340 H   0  0  0  0  0  0  0  0  0  0  0  0
   11.0340   -6.9380  -12.6360 H   0  0  0  0  0  0  0  0  0  0  0  0
   14.4170   -3.5150   -9.2900 H   0  0  0  0  0  0  0  0  0  0  0  0
   14.1120   -4.9260  -13.2780 H   0  0  0  0  0  0  0  0  0  0  0  0
   14.9080   -2.8160  -14.1090 H   0  0  0  0  0  0  0  0  0  0  0  0
   15.2480   -1.3940  -10.1210 H   0  0  0  0  0  0  0  0  0  0  0  0
   13.5520    3.0650  -13.1800 H   0  0  0  0  0  0  0  0  0  0  0  0
   16.6790    3.8450  -15.7580 H   0  0  0  0  0  0  0  0  0  0  0  0
   17.6750    1.5590  -15.2870 H   0  0  0  0  0  0  0  0  0  0  0  0
   17.6430   -1.7910  -13.7200 H   0  0  0  0  0  0  0  0  0  0  0  0
   19.5410   -2.4040  -12.8170 H   0  0  0  0  0  0  0  0  0  0  0  0
   18.5220   -1.8170  -11.4950 H   0  0  0  0  0  0  0  0  0  0  0  0
   20.2180   -1.3080  -11.5990 H   0  0  0  0  0  0  0  0  0  0  0  0
   20.8530    0.3790  -13.4180 H   0  0  0  0  0  0  0  0  0  0  0  0
   19.6680    0.8490  -14.6390 H   0  0  0  0  0  0  0  0  0  0  0  0
   20.2720   -0.8180  -14.6050 H   0  0  0  0  0  0  0  0  0  0  0  0
   19.5570    1.0180  -11.4640 H   0  0  0  0  0  0  0  0  0  0  0  0
   17.8480    0.5970  -11.3360 H   0  0  0  0  0  0  0  0  0  0  0  0
   18.4070    1.7410  -12.5820 H   0  0  0  0  0  0  0  0  0  0  0  0
   13.6820    0.4590  -12.1190 H   0  0  0  0  0  0  0  0  0  0  0  0
  1  2  1  0  0  0  0
  1 12  1  0  0  0  0
  2  3  2  0  0  0  0
  2  6  1  0  0  0  0
  3  4  1  0  0  0  0
  3  7  1  0  0  0  0
  4  5  1  0  0  0  0
  4 12  2  0  0  0  0
  5 28  1  0  0  0  0
  5 29  1  0  0  0  0
  5 30  1  0  0  0  0
  6 31  1  0  0  0  0
  6 32  1  0  0  0  0
  6 33  1  0  0  0  0
  7  8  1  0  0  0  0
  7 13  2  0  0  0  0
  8 16  2  0  0  0  0
  8 34  1  0  0  0  0
  9 11  2  0  0  0  0
  9 15  1  0  0  0  0
  9 17  1  0  0  0  0
 10 17  1  0  0  0  0
 10 18  1  0  0  0  0
 10 19  2  0  0  0  0
 11 18  1  0  0  0  0
 11 23  1  0  0  0  0
 13 14  1  0  0  0  0
 13 35  1  0  0  0  0
 14 15  2  0  0  0  0
 14 36  1  0  0  0  0
 15 16  1  0  0  0  0
 16 37  1  0  0  0  0
 17 51  1  0  0  0  0
 18 22  2  0  0  0  0
 19 20  1  0  0  0  0
 19 38  1  0  0  0  0
 20 21  2  0  0  0  0
 21 22  1  0  0  0  0
 21 39  1  0  0  0  0
 22 40  1  0  0  0  0
 23 24  1  0  0  0  0
 23 41  1  0  0  0  0
 24 25  1  0  0  0  0
 24 26  1  0  0  0  0
 24 27  1  0  0  0  0
 25 42  1  0  0  0  0
 25 43  1  0  0  0  0
 25 44  1  0  0  0  0
 26 45  1  0  0  0  0
 26 46  1  0  0  0  0
 26 47  1  0  0  0  0
 27 48  1  0  0  0  0
 27 49  1  0  0  0  0
 27 50  1  0  0  0  0
M  CHG  1  18   1
M  END
> <rseq>
1

> <mseq>
1

> <S>
-5.742656

> <rmsd>
6.080009

> <rmsd_refine>
2.142078

> <E_conf>
-4.4095

> <E_place>
-46.23227

> <E_score1>
-8.254939

> <E_refine>
-24.55305

> <E_score2>
-5.742656

> <PLIF_pronum>
1

>  <PLIF_raw>
[[7,13,14,15,16,8],[844,844,844,844,844,844],[92,92,92,92,92,92],[10,10,10,10,10,10],[0.5,0.5,0.5,0.5,0.5,0.5]]

> <FP:PLIF>
1

>  <PLIF_ligidx>
[[7,13,14,15,16,8]]

$$$$
4wiv_ligand
  MOE2018           3D
4wiv_ligand
 51 54  0  0  0  0  0  0  0  0999 V2000
   17.2560    1.5220  -15.7860 O   0  0  0  0  0  0  0  0  0  0  0  0
   17.1380    0.2950  -15.2900 C   0  0  0  0  0  0  0  0  0  0  0  0
   16.2170    0.3280  -14.3040 C   0  0  0  0  0  0  0  0  0  0  0  0
   15.8100    1.6670  -14.2540 C   0  0  0  0  0  0  0  0  0  0  0  0
   14.7860    2.2840  -13.3300 C   0  0  0  0  0  0  0  0  0  0  0  0
   17.9600   -0.8320  -15.8520 C   0  0  0  0  0  0  0  0  0  0  0  0
   15.7500   -0.7920  -13.4850 C   0  0  0  0  0  0  0  0  0  0  0  0
   15.6820   -0.6710  -12.0970 C   0  0  0  0  0  0  0  0  0  0  0  0
   14.3030   -4.0090  -11.0350 C   0  0  0  0  0  0  0  0  0  0  0  0
   14.4260   -5.3100   -9.2280 C   0  0  0  0  0  0  0  0  0  0  0  0
   13.6260   -5.1760  -11.2980 C   0  0  0  0  0  0  0  0  0  0  0  0
   16.4390    2.3570  -15.1400 N   0  0  0  0  0  0  0  0  0  0  0  0
   15.3450   -2.0070  -14.0540 C   0  0  0  0  0  0  0  0  0  0  0  0
   14.8330   -3.0320  -13.2700 C   0  0  0  0  0  0  0  0  0  0  0  0
   14.7410   -2.9020  -11.8760 C   0  0  0  0  0  0  0  0  0  0  0  0
   15.1800   -1.6960  -11.3080 C   0  0  0  0  0  0  0  0  0  0  0  0
   14.6850   -4.0940   -9.7150 N   0  0  0  0  0  0  0  0  0  0  0  0
   13.8860   -6.0230  -10.2370 N   0  3  0  0  0  0  0  0  0  0  0  0
   14.6900   -5.8880   -7.9600 C   0  0  0  0  0  0  0  0  0  0  0  0
   14.5680   -7.1700   -7.7890 N   0  0  0  0  0  0  0  0  0  0  0  0
   14.1960   -7.9440   -8.8760 C   0  0  0  0  0  0  0  0  0  0  0  0
   13.8830   -7.4020  -10.0980 C   0  0  0  0  0  0  0  0  0  0  0  0
   12.7750   -5.4460  -12.4020 N   0  0  0  0  0  0  0  0  0  0  0  0
   11.4580   -6.1660  -12.4890 C   0  0  0  0  0  0  0  0  0  0  0  0
   10.9280   -6.1620  -13.9420 C   0  0  0  0  0  0  0  0  0  0  0  0
   11.3830   -7.6140  -11.9620 C   0  0  0  0  0  0  0  0  0  0  0  0
   10.5110   -5.3530  -11.6600 C   0  0  0  0  0  0  0  0  0  0  0  0
   15.2330    2.3900  -12.3420 H   0  0  0  0  0  0  0  0  0  0  0  0
   14.5000    3.2600  -13.7240 H   0  0  0  0  0  0  0  0  0  0  0  0
   13.9190    1.6280  -13.2990 H   0  0  0  0  0  0  0  0  0  0  0  0
   18.0900   -1.5660  -15.0580 H   0  0  0  0  0  0  0  0  0  0  0  0
   18.9250   -0.4380  -16.1710 H   0  0  0  0  0  0  0  0  0  0  0  0
   17.4180   -1.2600  -16.6960 H   0  0  0  0  0  0  0  0  0  0  0  0
   16.0310    0.2200  -11.6430 H   0  0  0  0  0  0  0  0  0  0  0  0
   15.4230   -2.1470  -15.1000 H   0  0  0  0  0  0  0  0  0  0  0  0
   14.5260   -3.9300  -13.7380 H   0  0  0  0  0  0  0  0  0  0  0  0
   15.1420   -1.5640  -10.2580 H   0  0  0  0  0  0  0  0  0  0  0  0
   15.0050   -5.2760   -7.1540 H   0  0  0  0  0  0  0  0  0  0  0  0
   14.1820   -8.9930   -8.7300 H   0  0  0  0  0  0  0  0  0  0  0  0
   13.6650   -7.9520  -10.9720 H   0  0  0  0  0  0  0  0  0  0  0  0
   12.7110   -4.6220  -13.0230 H   0  0  0  0  0  0  0  0  0  0  0  0
    9.8450   -6.0600  -13.9640 H   0  0  0  0  0  0  0  0  0  0  0  0
   11.1310   -7.1070  -14.4340 H   0  0  0  0  0  0  0  0  0  0  0  0
   11.3670   -5.3470  -14.5190 H   0  0  0  0  0  0  0  0  0  0  0  0
   10.4080   -8.0390  -12.2080 H   0  0  0  0  0  0  0  0  0  0  0  0
   11.4710   -7.6390  -10.8780 H   0  0  0  0  0  0  0  0  0  0  0  0
   12.1370   -8.2440  -12.4200 H   0  0  0  0  0  0  0  0  0  0  0  0
    9.9490   -4.6410  -12.2510 H   0  0  0  0  0  0  0  0  0  0  0  0
   11.1380   -4.8040  -10.9860 H   0  0  0  0  0  0  0  0  0  0  0  0
    9.8460   -5.9930  -11.0910 H   0  0  0  0  0  0  0  0  0  0  0  0
   15.1720   -3.3560   -9.1770 H   0  0  0  0  0  0  0  0  0  0  0  0
  1  2  1  0  0  0  0
  1 12  1  0  0  0  0
  2  3  2  0  0  0  0
  2  6  1  0  0  0  0
  3  4  1  0  0  0  0
  3  7  1  0  0  0  0
  4  5  1  0  0  0  0
  4 12  2  0  0  0  0
  5 28  1  0  0  0  0
  5 29  1  0  0  0  0
  5 30  1  0  0  0  0
  6 31  1  0  0  0  0
  6 32  1  0  0  0  0
  6 33  1  0  0  0  0
  7  8  1  0  0  0  0
  7 13  2  0  0  0  0
  8 16  2  0  0  0  0
  8 34  1  0  0  0  0
  9 11  2  0  0  0  0
  9 15  1  0  0  0  0
  9 17  1  0  0  0  0
 10 17  1  0  0  0  0
 10 18  1  0  0  0  0
 10 19  2  0  0  0  0
 11 18  1  0  0  0  0
 11 23  1  0  0  0  0
 13 14  1  0  0  0  0
 13 35  1  0  0  0  0
 14 15  2  0  0  0  0
 14 36  1  0  0  0  0
 15 16  1  0  0  0  0
 16 37  1  0  0  0  0
 17 51  1  0  0  0  0
 18 22  2  0  0  0  0
 19 20  1  0  0  0  0
 19 38  1  0  0  0  0
 20 21  2  0  0  0  0
 21 22  1  0  0  0  0
 21 39  1  0  0  0  0
 22 40  1  0  0  0  0
 23 24  1  0  0  0  0
 23 41  1  0  0  0  0
 24 25  1  0  0  0  0
 24 26  1  0  0  0  0
 24 27  1  0  0  0  0
 25 42  1  0  0  0  0
 25 43  1  0  0  0  0
 25 44  1  0  0  0  0
 26 45  1  0  0  0  0
 26 46  1  0  0  0  0
 26 47  1  0  0  0  0
 27 48  1  0  0  0  0
 27 49  1  0  0  0  0
 27 50  1  0  0  0  0
M  CHG  1  18   1
M  END
> <rseq>
1

> <mseq>
1

> <S>
-5.730224

> <rmsd>
8.072111

> <rmsd_refine>
1.766722

> <E_conf>
11.84422

> <E_place>
-50.80899

> <E_score1>
-9.623116

> <E_refine>
-21.29741

> <E_score2>
-5.730224

> <PLIF_pronum>
1

>  <PLIF_raw>
[[23,9,17,10,18,11,10,19,20,21,22,18],[683,684,684,684,684,684,1726,1726,1726,1726,1726,1726],[82,82,82,82,82,82,146,146,146,146,146,146],[3,10,10,10,10,10,10,10,10,10,10,10],[1.7,0.7,0.7,0.7,0.7,0.7,0.7,0.7,0.7,0.7,0.7,0.7]]

> <FP:PLIF>
2 3 4 7

>  <PLIF_ligidx>
[23,23,[9,17,10,18,11],[10,19,20,21,22,18]]

$$$$
4wiv_ligand
  MOE2018           3D
4wiv_ligand
 51 54  0  0  0  0  0  0  0  0999 V2000
   11.7790   -7.8720  -11.1060 O   0  0  0  0  0  0  0  0  0  0  0  0
   12.0090   -6.6140  -11.4650 C   0  0  0  0  0  0  0  0  0  0  0  0
   13.2120   -6.2440  -10.9630 C   0  0  0  0  0  0  0  0  0  0  0  0
   13.6590   -7.3850  -10.2780 C   0  0  0  0  0  0  0  0  0  0  0  0
   14.9580   -7.6010   -9.5390 C   0  0  0  0  0  0  0  0  0  0  0  0
   10.9750   -5.8960  -12.2990 C   0  0  0  0  0  0  0  0  0  0  0  0
   13.8750   -4.9430  -11.1490 C   0  0  0  0  0  0  0  0  0  0  0  0
   14.4270   -4.2170  -10.0820 C   0  0  0  0  0  0  0  0  0  0  0  0
   15.6550   -1.0790  -11.8300 C   0  0  0  0  0  0  0  0  0  0  0  0
   15.7070    0.8810  -12.9170 C   0  0  0  0  0  0  0  0  0  0  0  0
   16.7960   -0.4030  -11.4630 C   0  0  0  0  0  0  0  0  0  0  0  0
   12.7970   -8.3370  -10.3840 N   0  0  0  0  0  0  0  0  0  0  0  0
   13.9650   -4.3710  -12.4230 C   0  0  0  0  0  0  0  0  0  0  0  0
   14.5650   -3.1400  -12.6280 C   0  0  0  0  0  0  0  0  0  0  0  0
   15.1020   -2.4030  -11.5640 C   0  0  0  0  0  0  0  0  0  0  0  0
   15.0330   -2.9780  -10.2850 C   0  0  0  0  0  0  0  0  0  0  0  0
   14.9910   -0.2260  -12.6870 N   0  0  0  0  0  0  0  0  0  0  0  0
   16.8440    0.7530  -12.2090 N   0  3  0  0  0  0  0  0  0  0  0  0
   15.4640    2.0140  -13.7350 C   0  0  0  0  0  0  0  0  0  0  0  0
   16.3810    2.9260  -13.8800 N   0  0  0  0  0  0  0  0  0  0  0  0
   17.5930    2.7580  -13.2260 C   0  0  0  0  0  0  0  0  0  0  0  0
   17.8490    1.6860  -12.4090 C   0  0  0  0  0  0  0  0  0  0  0  0
   17.8530   -0.7340  -10.5970 N   0  0  0  0  0  0  0  0  0  0  0  0
   18.0820   -0.0560   -9.2930 C   0  0  0  0  0  0  0  0  0  0  0  0
   19.5790   -0.1670   -8.9680 C   0  0  0  0  0  0  0  0  0  0  0  0
   17.6890    1.4350   -9.2350 C   0  0  0  0  0  0  0  0  0  0  0  0
   17.2890   -0.7900   -8.2020 C   0  0  0  0  0  0  0  0  0  0  0  0
   15.7060   -7.8970  -10.2740 H   0  0  0  0  0  0  0  0  0  0  0  0
   14.8160   -8.4030   -8.8120 H   0  0  0  0  0  0  0  0  0  0  0  0
   15.2430   -6.6860   -9.0260 H   0  0  0  0  0  0  0  0  0  0  0  0
   11.3980   -5.6910  -13.2820 H   0  0  0  0  0  0  0  0  0  0  0  0
   10.7030   -4.9750  -11.7880 H   0  0  0  0  0  0  0  0  0  0  0  0
   10.1060   -6.5440  -12.3980 H   0  0  0  0  0  0  0  0  0  0  0  0
   14.3680   -4.6100   -9.1000 H   0  0  0  0  0  0  0  0  0  0  0  0
   13.5550   -4.8730  -13.2570 H   0  0  0  0  0  0  0  0  0  0  0  0
   14.6080   -2.7500  -13.6120 H   0  0  0  0  0  0  0  0  0  0  0  0
   15.4280   -2.4580   -9.4550 H   0  0  0  0  0  0  0  0  0  0  0  0
   14.5350    2.1180  -14.2360 H   0  0  0  0  0  0  0  0  0  0  0  0
   18.3300    3.5020  -13.3910 H   0  0  0  0  0  0  0  0  0  0  0  0
   18.7630    1.4900  -11.9080 H   0  0  0  0  0  0  0  0  0  0  0  0
   17.8650   -1.7450  -10.4100 H   0  0  0  0  0  0  0  0  0  0  0  0
   19.7930    0.2950   -8.0040 H   0  0  0  0  0  0  0  0  0  0  0  0
   20.1640    0.3360   -9.7390 H   0  0  0  0  0  0  0  0  0  0  0  0
   19.8810   -1.2130   -8.9290 H   0  0  0  0  0  0  0  0  0  0  0  0
   17.7780    1.8000   -8.2110 H   0  0  0  0  0  0  0  0  0  0  0  0
   16.6610    1.5840   -9.5550 H   0  0  0  0  0  0  0  0  0  0  0  0
   18.3580    2.0380   -9.8450 H   0  0  0  0  0  0  0  0  0  0  0  0
   17.5020   -0.3580   -7.2240 H   0  0  0  0  0  0  0  0  0  0  0  0
   17.5580   -1.8450   -8.1770 H   0  0  0  0  0  0  0  0  0  0  0  0
   16.2230   -0.6970   -8.3960 H   0  0  0  0  0  0  0  0  0  0  0  0
   14.0730   -0.4080  -13.1260 H   0  0  0  0  0  0  0  0  0  0  0  0
  1  2  1  0  0  0  0
  1 12  1  0  0  0  0
  2  3  2  0  0  0  0
  2  6  1  0  0  0  0
  3  4  1  0  0  0  0
  3  7  1  0  0  0  0
  4  5  1  0  0  0  0
  4 12  2  0  0  0  0
  5 28  1  0  0  0  0
  5 29  1  0  0  0  0
  5 30  1  0  0  0  0
  6 31  1  0  0  0  0
  6 32  1  0  0  0  0
  6 33  1  0  0  0  0
  7  8  1  0  0  0  0
  7 13  2  0  0  0  0
  8 16  2  0  0  0  0
  8 34  1  0  0  0  0
  9 11  2  0  0  0  0
  9 15  1  0  0  0  0
  9 17  1  0  0  0  0
 10 17  1  0  0  0  0
 10 18  1  0  0  0  0
 10 19  2  0  0  0  0
 11 18  1  0  0  0  0
 11 23  1  0  0  0  0
 13 14  1  0  0  0  0
 13 35  1  0  0  0  0
 14 15  2  0  0  0  0
 14 36  1  0  0  0  0
 15 16  1  0  0  0  0
 16 37  1  0  0  0  0
 17 51  1  0  0  0  0
 18 22  2  0  0  0  0
 19 20  1  0  0  0  0
 19 38  1  0  0  0  0
 20 21  2  0  0  0  0
 21 22  1  0  0  0  0
 21 39  1  0  0  0  0
 22 40  1  0  0  0  0
 23 24  1  0  0  0  0
 23 41  1  0  0  0  0
 24 25  1  0  0  0  0
 24 26  1  0  0  0  0
 24 27  1  0  0  0  0
 25 42  1  0  0  0  0
 25 43  1  0  0  0  0
 25 44  1  0  0  0  0
 26 45  1  0  0  0  0
 26 46  1  0  0  0  0
 26 47  1  0  0  0  0
 27 48  1  0  0  0  0
 27 49  1  0  0  0  0
 27 50  1  0  0  0  0
M  CHG  1  18   1
M  END
> <rseq>
1

> <mseq>
1

> <S>
-5.713066

> <rmsd>
4.571962

> <rmsd_refine>
2.696192

> <E_conf>
-6.493556

> <E_place>
-62.75913

> <E_score1>
-8.697388

> <E_refine>
-26.38181

> <E_score2>
-5.713066

> <PLIF_pronum>
1

>  <PLIF_raw>
[[12,7,13,14,15,16,8,7,13,14,15,16,8,1,12,4,3,2],[1657,684,684,684,684,684,684,844,844,844,844,844,844,1726,1726,1726,1726,1726],[140,82,82,82,82,82,82,92,92,92,92,92,92,146,146,146,146,146],[2,10,10,10,10,10,10,10,10,10,10,10,10,10,10,10,10,10],[1.2,0.7,0.7,0.7,0.7,0.7,0.7,0.5,0.5,0.5,0.5,0.5,0.5,0.8,0.8,0.8,0.8,0.8]]

> <FP:PLIF>
4 1 12 7

>  <PLIF_ligidx>
[[7,13,14,15,16,8],[7,13,14,15,16,8],12,[1,12,4,3,2]]

$$$$
