@<TRIPOS>MOLECULE
2RY_A_201
52 56 1 0 0
SMALL
MULLIKEN_CHARGES

@<TRIPOS>ATOM
 1 F1     -65.4350     3.3000    -2.2540 F     1  2RY201  -0.177240
 2 C22    -66.1050     4.0220    -1.3740 C.3   1  2RY201   0.534018
 3 F2     -67.2440     4.4050    -1.9210 F     1  2RY201  -0.179749
 4 F3     -65.4080     5.1010    -1.0680 F     1  2RY201  -0.194123
 5 C21    -66.3520     3.2060    -0.1280 C.ar  1  2RY201  -0.230690
 6 C20    -67.6660     3.0400     0.3260 C.ar  1  2RY201  -0.048762
 7 C19    -67.9360     2.2970     1.4710 C.ar  1  2RY201  -0.196853
 8 C18    -66.8950     1.7100     2.1780 C.ar  1  2RY201  -0.066223
 9 C17    -65.5860     1.8700     1.7350 C.ar  1  2RY201  -0.212316
10 C16    -65.3040     2.6120     0.5870 C.ar  1  2RY201   0.184475
11 C9     -63.8430     2.7270     0.1840 C.3   1  2RY201  -0.452244
12 C8     -63.3460     1.4380    -0.4470 C.2   1  2RY201   0.588112
13 O1     -64.1200     0.5010    -0.5630 O.2   1  2RY201  -0.557503
14 N4     -62.0700     1.3590    -0.8650 N.am  1  2RY201  -0.379541
15 C15    -61.5780     0.1000    -1.4540 C.3   1  2RY201  -0.093066
16 C7     -60.5700     0.3430    -2.5760 C.3   1  2RY201  -0.171980
17 C6     -61.1200     2.4740    -0.7170 C.3   1  2RY201  -0.097494
18 C5     -60.2540     2.5810    -1.9660 C.3   1  2RY201  -0.170443
19 N3     -59.5520     1.2990    -2.1150 N.2   1  2RY201  -0.272094
20 C1     -58.4410     1.3870    -2.9860 C.ar  1  2RY201   0.368491
21 C3     -57.2600     1.9850    -2.5480 C.ar  1  2RY201  -0.250330
22 N1     -58.4850     0.8810    -4.2460 N.ar  1  2RY201  -0.480559
23 C2     -57.4260     0.9550    -5.0700 C.ar  1  2RY201   0.216695
24 N2     -56.2790     1.5310    -4.6770 N.ar  1  2RY201  -0.394718
25 C4     -56.1670     2.0510    -3.4290 C.ar  1  2RY201   0.102065
26 S1     -54.7210     2.7830    -2.9140 S.3   1  2RY201   0.216120
27 C11    -55.5150     3.0690    -1.4040 C.2   1  2RY201  -0.164708
28 C10    -56.8740     2.5910    -1.3480 C.2   1  2RY201   0.052096
29 C12    -55.0000     3.7320    -0.1720 C.3   1  2RY201  -0.234916
30 C13    -56.2640     3.6150     0.7210 C.3   1  2RY201  -0.247479
31 C14    -57.4440     2.8970     0.0070 C.3   1  2RY201  -0.254397
32 H142   -57.7335     1.9695     0.5181 H     1  2RY201   0.157546
33 H141   -58.3161     3.5547    -0.0587 H     1  2RY201   0.140607
34 H132   -56.5814     4.6195     1.0359 H     1  2RY201   0.133445
35 H131   -56.0104     3.0742     1.6443 H     1  2RY201   0.136277
36 H122   -54.7182     4.7775    -0.3585 H     1  2RY201   0.148506
37 H121   -54.1419     3.1918     0.2515 H     1  2RY201   0.149976
38 H2     -57.4980     0.5405    -6.0748 H     1  2RY201   0.190645
39 H52    -59.5326     3.4030    -1.8778 H     1  2RY201   0.154448
40 H51    -60.8766     2.7879    -2.8484 H     1  2RY201   0.147489
41 H62    -60.4797     2.2713     0.1523 H     1  2RY201   0.147806
42 H61    -61.5998     3.4448    -0.5619 H     1  2RY201   0.139184
43 H72    -61.0804     0.7252    -3.4715 H     1  2RY201   0.148451
44 H71    -60.0875    -0.6064    -2.8492 H     1  2RY201   0.167308
45 H152   -62.4141    -0.4994    -1.8461 H     1  2RY201   0.169702
46 H151   -61.1007    -0.4871    -0.6582 H     1  2RY201   0.145648
47 H92    -63.2332     2.9226     1.0683 H     1  2RY201   0.180020
48 H91    -63.6692     3.5383    -0.5172 H     1  2RY201   0.183838
49 H17    -64.7770     1.3880     2.2742 H     1  2RY201   0.163036
50 H18    -67.1023     1.1175     3.0659 H     1  2RY201   0.147795
51 H19    -68.9615     2.1705     1.8076 H     1  2RY201   0.157950
52 H20    -68.5084     3.4821    -0.2009 H     1  2RY201   0.155678
@<TRIPOS>BOND
  1  1  2 1
  2  2  5 1
  3  2  4 1
  4  2  3 1
  5  5 10 ar
  6  5  6 ar
  7  6  7 ar
  8  6 52 1
  9  7  8 ar
 10  7 51 1
 11  8  9 ar
 12  8 50 1
 13  9 10 ar
 14  9 49 1
 15 10 11 1
 16 11 12 1
 17 11 47 1
 18 11 48 1
 19 12 14 am
 20 12 13 2
 21 14 17 1
 22 14 15 1
 23 15 16 1
 24 15 45 1
 25 15 46 1
 26 16 19 1
 27 16 43 1
 28 16 44 1
 29 17 18 1
 30 17 41 1
 31 17 42 1
 32 18 19 1
 33 18 39 1
 34 18 40 1
 35 19 20 1
 36 20 22 ar
 37 20 21 ar
 38 21 28 1
 39 21 25 ar
 40 22 23 ar
 41 23 24 ar
 42 23 38 1
 43 24 25 ar
 44 25 26 1
 45 26 27 1
 46 27 29 1
 47 27 28 2
 48 28 31 1
 49 29 30 1
 50 29 36 1
 51 29 37 1
 52 30 31 1
 53 30 34 1
 54 30 35 1
 55 31 32 1
 56 31 33 1
@<TRIPOS>SUBSTRUCTURE
1  2RY201  1 GROUP   4  A  2RY 0

# DivConSuite-DivConDiscoverySuite-DEV.1670
