CHEMBL3402753_200
  MOE2020           3D

 46 49  0  0  0  0  0  0  0  0999 V2000
   24.6440   33.7570   50.5300 C   0  0  0  0  0  0  0  0  0  0  0  0
   24.1960   33.6080   51.9710 C   0  0  0  0  0  0  0  0  0  0  0  0
   22.9270   33.1280   52.2870 C   0  0  0  0  0  0  0  0  0  0  0  0
   22.5560   32.9820   53.6250 C   0  0  0  0  0  0  0  0  0  0  0  0
   23.4680   33.3170   54.6400 C   0  0  0  0  0  0  0  0  0  0  0  0
   24.7030   33.8060   54.3290 N   0  0  0  0  0  0  0  0  0  0  0  0
   25.0500   33.9350   53.0240 C   0  0  0  0  0  0  0  0  0  0  0  0
   23.1950   33.0560   56.0980 C   0  0  0  0  0  0  0  0  0  0  0  0
   24.2280   33.1080   57.0530 C   0  0  0  0  0  0  0  0  0  0  0  0
   24.0150   32.7150   58.3740 C   0  0  0  0  0  0  0  0  0  0  0  0
   22.7600   32.2680   58.7760 C   0  0  0  0  0  0  0  0  0  0  0  0
   21.7000   32.2520   57.8670 C   0  0  0  0  0  0  0  0  0  0  0  0
   20.3110   31.8110   58.3230 C   0  0  0  0  0  0  0  0  0  0  0  0
   19.9720   30.4320   57.9300 N   0  0  0  0  0  0  0  0  0  0  0  0
   19.4380   30.2700   56.6490 N   0  0  0  0  0  0  0  0  0  0  0  0
   19.0710   29.1170   56.1870 C   0  0  0  0  0  0  0  0  0  0  0  0
   19.3100   27.9720   57.0530 C   0  0  0  0  0  0  0  0  0  0  0  0
   19.8480   28.1160   58.2860 C   0  0  0  0  0  0  0  0  0  0  0  0
   20.2090   29.4110   58.8310 C   0  0  0  0  0  0  0  0  0  0  0  0
   20.6470   29.5360   59.9760 O   0  0  0  0  0  0  0  0  0  0  0  0
   18.4360   28.9570   54.8560 C   0  0  0  0  0  0  0  0  0  0  0  0
   17.9520   30.0910   54.1750 C   0  0  0  0  0  0  0  0  0  0  0  0
   17.2980   29.9690   52.9510 C   0  0  0  0  0  0  0  0  0  0  0  0
   16.8360   31.0760   52.3230 F   0  0  0  0  0  0  0  0  0  0  0  0
   17.1100   28.7120   52.3840 C   0  0  0  0  0  0  0  0  0  0  0  0
   17.5830   27.5780   53.0400 C   0  0  0  0  0  0  0  0  0  0  0  0
   17.3890   26.3560   52.4990 F   0  0  0  0  0  0  0  0  0  0  0  0
   18.2470   27.6990   54.2600 C   0  0  0  0  0  0  0  0  0  0  0  0
   21.9190   32.6670   56.5500 C   0  0  0  0  0  0  0  0  0  0  0  0
   25.1760   32.8590   50.2080 H   0  0  0  0  0  0  0  0  0  0  0  0
   25.3160   34.6080   50.4140 H   0  0  0  0  0  0  0  0  0  0  0  0
   23.7920   33.9110   49.8660 H   0  0  0  0  0  0  0  0  0  0  0  0
   22.2300   32.8650   51.5050 H   0  0  0  0  0  0  0  0  0  0  0  0
   21.5780   32.5760   53.8360 H   0  0  0  0  0  0  0  0  0  0  0  0
   26.0430   34.3120   52.8220 H   0  0  0  0  0  0  0  0  0  0  0  0
   25.2270   33.4060   56.7730 H   0  0  0  0  0  0  0  0  0  0  0  0
   24.8330   32.7340   59.0780 H   0  0  0  0  0  0  0  0  0  0  0  0
   22.6120   31.9260   59.7900 H   0  0  0  0  0  0  0  0  0  0  0  0
   20.2100   31.9630   59.4000 H   0  0  0  0  0  0  0  0  0  0  0  0
   19.5700   32.4930   57.8960 H   0  0  0  0  0  0  0  0  0  0  0  0
   19.0660   26.9640   56.7510 H   0  0  0  0  0  0  0  0  0  0  0  0
   20.0180   27.2420   58.8980 H   0  0  0  0  0  0  0  0  0  0  0  0
   18.0620   31.0790   54.5950 H   0  0  0  0  0  0  0  0  0  0  0  0
   16.5960   28.6120   51.4400 H   0  0  0  0  0  0  0  0  0  0  0  0
   18.5990   26.7870   54.7200 H   0  0  0  0  0  0  0  0  0  0  0  0
   21.0820   32.6370   55.8710 H   0  0  0  0  0  0  0  0  0  0  0  0
  1  2  1  0  0  0  0
  1 30  1  0  0  0  0
  1 31  1  0  0  0  0
  1 32  1  0  0  0  0
  2  3  1  0  0  0  0
  2  7  2  0  0  0  0
  3  4  2  0  0  0  0
  3 33  1  0  0  0  0
  4  5  1  0  0  0  0
  4 34  1  0  0  0  0
  5  6  2  0  0  0  0
  5  8  1  0  0  0  0
  6  7  1  0  0  0  0
  7 35  1  0  0  0  0
  8  9  1  0  0  0  0
  8 29  2  0  0  0  0
  9 10  2  0  0  0  0
  9 36  1  0  0  0  0
 10 11  1  0  0  0  0
 10 37  1  0  0  0  0
 11 12  2  0  0  0  0
 11 38  1  0  0  0  0
 12 13  1  0  0  0  0
 12 29  1  0  0  0  0
 13 14  1  0  0  0  0
 13 39  1  0  0  0  0
 13 40  1  0  0  0  0
 14 15  1  0  0  0  0
 14 19  1  0  0  0  0
 15 16  2  0  0  0  0
 16 17  1  0  0  0  0
 16 21  1  0  0  0  0
 17 18  2  0  0  0  0
 17 41  1  0  0  0  0
 18 19  1  0  0  0  0
 18 42  1  0  0  0  0
 19 20  2  0  0  0  0
 21 22  1  0  0  0  0
 21 28  2  0  0  0  0
 22 23  2  0  0  0  0
 22 43  1  0  0  0  0
 23 24  1  0  0  0  0
 23 25  1  0  0  0  0
 25 26  2  0  0  0  0
 25 44  1  0  0  0  0
 26 27  1  0  0  0  0
 26 28  1  0  0  0  0
 28 45  1  0  0  0  0
 29 46  1  0  0  0  0
M  END
>  <s_user_Name>
CHEMBL3402753_200

>  <IC50[nM]>
200

$$$$
CHEMBL3402759_5.7
  MOE2020           3D

 65 68  0  0  0  0  0  0  0  0999 V2000
   15.8250   31.3720   51.3890 C   0  0  0  0  0  0  0  0  0  0  0  0
   16.6340   31.3980   52.5610 O   0  0  0  0  0  0  0  0  0  0  0  0
   17.1600   30.2110   53.0330 C   0  0  0  0  0  0  0  0  0  0  0  0
   17.0410   28.9710   52.3860 C   0  0  0  0  0  0  0  0  0  0  0  0
   17.5890   27.8240   52.9550 C   0  0  0  0  0  0  0  0  0  0  0  0
   18.2510   27.8960   54.1800 C   0  0  0  0  0  0  0  0  0  0  0  0
   18.3950   29.1220   54.8470 C   0  0  0  0  0  0  0  0  0  0  0  0
   17.8480   30.2700   54.2460 C   0  0  0  0  0  0  0  0  0  0  0  0
   19.0490   29.2330   56.1760 C   0  0  0  0  0  0  0  0  0  0  0  0
   19.4290   30.3670   56.6720 N   0  0  0  0  0  0  0  0  0  0  0  0
   19.9690   30.4820   57.9560 N   0  0  0  0  0  0  0  0  0  0  0  0
   20.3330   31.8460   58.3790 C   0  0  0  0  0  0  0  0  0  0  0  0
   21.7210   32.2720   57.9090 C   0  0  0  0  0  0  0  0  0  0  0  0
   22.7960   32.2650   58.7940 C   0  0  0  0  0  0  0  0  0  0  0  0
   24.0520   32.6950   58.3780 C   0  0  0  0  0  0  0  0  0  0  0  0
   24.2470   33.0980   57.0600 C   0  0  0  0  0  0  0  0  0  0  0  0
   23.1960   33.0790   56.1280 C   0  0  0  0  0  0  0  0  0  0  0  0
   21.9240   32.6940   56.5930 C   0  0  0  0  0  0  0  0  0  0  0  0
   23.4330   33.3800   54.6770 C   0  0  0  0  0  0  0  0  0  0  0  0
   24.6800   33.7790   54.2960 N   0  0  0  0  0  0  0  0  0  0  0  0
   24.9030   33.9130   52.9620 C   0  0  0  0  0  0  0  0  0  0  0  0
   23.9130   33.6530   51.9980 C   0  0  0  0  0  0  0  0  0  0  0  0
   24.0590   33.7620   50.6310 O   0  0  0  0  0  0  0  0  0  0  0  0
   25.3680   33.8940   50.0960 C   0  0  0  0  0  0  0  0  0  0  0  0
   25.2910   34.1840   48.5900 C   0  0  0  0  0  0  0  0  0  0  0  0
   24.4430   33.2040   47.7590 C   0  0  0  0  0  0  0  0  0  0  0  0
   25.0470   31.7800   47.8070 N   0  3  0  0  0  0  0  0  0  0  0  0
   24.2950   30.8490   48.7810 C   0  0  0  0  0  0  0  0  0  0  0  0
   25.1640   31.1330   46.4100 C   0  0  0  0  0  0  0  0  0  0  0  0
   22.6660   33.2760   52.4940 C   0  0  0  0  0  0  0  0  0  0  0  0
   22.4070   33.1350   53.8160 N   0  0  0  0  0  0  0  0  0  0  0  0
   20.2000   29.4360   58.8240 C   0  0  0  0  0  0  0  0  0  0  0  0
   20.6470   29.5260   59.9700 O   0  0  0  0  0  0  0  0  0  0  0  0
   19.8280   28.1600   58.2380 C   0  0  0  0  0  0  0  0  0  0  0  0
   19.2820   28.0580   57.0030 C   0  0  0  0  0  0  0  0  0  0  0  0
   15.4610   32.3770   51.1750 H   0  0  0  0  0  0  0  0  0  0  0  0
   14.9540   30.7290   51.5200 H   0  0  0  0  0  0  0  0  0  0  0  0
   16.3920   31.0380   50.5200 H   0  0  0  0  0  0  0  0  0  0  0  0
   16.5240   28.8760   51.4440 H   0  0  0  0  0  0  0  0  0  0  0  0
   17.5000   26.8730   52.4500 H   0  0  0  0  0  0  0  0  0  0  0  0
   18.6500   26.9780   54.5830 H   0  0  0  0  0  0  0  0  0  0  0  0
   17.9230   31.2310   54.7330 H   0  0  0  0  0  0  0  0  0  0  0  0
   20.2540   31.9740   59.4610 H   0  0  0  0  0  0  0  0  0  0  0  0
   19.6000   32.5480   57.9770 H   0  0  0  0  0  0  0  0  0  0  0  0
   22.6550   31.9260   59.8100 H   0  0  0  0  0  0  0  0  0  0  0  0
   24.8820   32.7070   59.0700 H   0  0  0  0  0  0  0  0  0  0  0  0
   25.2440   33.3960   56.7680 H   0  0  0  0  0  0  0  0  0  0  0  0
   21.0820   32.6750   55.9160 H   0  0  0  0  0  0  0  0  0  0  0  0
   25.9010   34.2230   52.6920 H   0  0  0  0  0  0  0  0  0  0  0  0
   25.9540   32.9950   50.2960 H   0  0  0  0  0  0  0  0  0  0  0  0
   25.8720   34.7260   50.5760 H   0  0  0  0  0  0  0  0  0  0  0  0
   26.3020   34.2340   48.1830 H   0  0  0  0  0  0  0  0  0  0  0  0
   24.8760   35.1840   48.4580 H   0  0  0  0  0  0  0  0  0  0  0  0
   24.4350   33.5180   46.7130 H   0  0  0  0  0  0  0  0  0  0  0  0
   23.4050   33.1450   48.0940 H   0  0  0  0  0  0  0  0  0  0  0  0
   24.3220   31.2960   49.7750 H   0  0  0  0  0  0  0  0  0  0  0  0
   24.8290   29.9000   48.7760 H   0  0  0  0  0  0  0  0  0  0  0  0
   23.2710   30.7320   48.4220 H   0  0  0  0  0  0  0  0  0  0  0  0
   25.7780   31.7920   45.7940 H   0  0  0  0  0  0  0  0  0  0  0  0
   24.1580   31.0240   46.0010 H   0  0  0  0  0  0  0  0  0  0  0  0
   25.6510   30.1650   46.5350 H   0  0  0  0  0  0  0  0  0  0  0  0
   21.8480   33.0830   51.8170 H   0  0  0  0  0  0  0  0  0  0  0  0
   19.9870   27.2680   58.8260 H   0  0  0  0  0  0  0  0  0  0  0  0
   19.0200   27.0670   56.6660 H   0  0  0  0  0  0  0  0  0  0  0  0
   25.9970   31.8660   48.1640 H   0  0  0  0  0  0  0  0  0  0  0  0
  1  2  1  0  0  0  0
  1 36  1  0  0  0  0
  1 37  1  0  0  0  0
  1 38  1  0  0  0  0
  2  3  1  0  0  0  0
  3  4  1  0  0  0  0
  3  8  2  0  0  0  0
  4  5  2  0  0  0  0
  4 39  1  0  0  0  0
  5  6  1  0  0  0  0
  5 40  1  0  0  0  0
  6  7  2  0  0  0  0
  6 41  1  0  0  0  0
  7  8  1  0  0  0  0
  7  9  1  0  0  0  0
  8 42  1  0  0  0  0
  9 10  2  0  0  0  0
  9 35  1  0  0  0  0
 10 11  1  0  0  0  0
 11 12  1  0  0  0  0
 11 32  1  0  0  0  0
 12 13  1  0  0  0  0
 12 43  1  0  0  0  0
 12 44  1  0  0  0  0
 13 14  1  0  0  0  0
 13 18  2  0  0  0  0
 14 15  2  0  0  0  0
 14 45  1  0  0  0  0
 15 16  1  0  0  0  0
 15 46  1  0  0  0  0
 16 17  2  0  0  0  0
 16 47  1  0  0  0  0
 17 18  1  0  0  0  0
 17 19  1  0  0  0  0
 18 48  1  0  0  0  0
 19 20  1  0  0  0  0
 19 31  2  0  0  0  0
 20 21  2  0  0  0  0
 21 22  1  0  0  0  0
 21 49  1  0  0  0  0
 22 23  1  0  0  0  0
 22 30  2  0  0  0  0
 23 24  1  0  0  0  0
 24 25  1  0  0  0  0
 24 50  1  0  0  0  0
 24 51  1  0  0  0  0
 25 26  1  0  0  0  0
 25 52  1  0  0  0  0
 25 53  1  0  0  0  0
 26 27  1  0  0  0  0
 26 54  1  0  0  0  0
 26 55  1  0  0  0  0
 27 28  1  0  0  0  0
 27 29  1  0  0  0  0
 27 65  1  0  0  0  0
 28 56  1  0  0  0  0
 28 57  1  0  0  0  0
 28 58  1  0  0  0  0
 29 59  1  0  0  0  0
 29 60  1  0  0  0  0
 29 61  1  0  0  0  0
 30 31  1  0  0  0  0
 30 62  1  0  0  0  0
 32 33  2  0  0  0  0
 32 34  1  0  0  0  0
 34 35  2  0  0  0  0
 34 63  1  0  0  0  0
 35 64  1  0  0  0  0
M  CHG  1  27   1
M  END
>  <s_user_Name>
CHEMBL3402759_5.7

>  <IC50[nM]>
5.6999998

$$$$
CHEMBL3402747_3400
  MOE2020           3D

 42 45  0  0  0  0  0  0  0  0999 V2000
   25.5430   34.0170   52.0100 C   0  0  0  0  0  0  0  0  0  0  0  0
   24.4530   33.6950   52.9990 C   0  0  0  0  0  0  0  0  0  0  0  0
   23.2280   33.4390   52.6010 N   0  0  0  0  0  0  0  0  0  0  0  0
   22.5650   33.1680   53.7950 O   0  0  0  0  0  0  0  0  0  0  0  0
   23.5070   33.3110   54.7620 C   0  0  0  0  0  0  0  0  0  0  0  0
   24.6790   33.6560   54.2950 N   0  0  0  0  0  0  0  0  0  0  0  0
   23.1480   32.9710   56.1720 C   0  0  0  0  0  0  0  0  0  0  0  0
   24.1340   32.9720   57.1660 C   0  0  0  0  0  0  0  0  0  0  0  0
   23.8300   32.5720   58.4640 C   0  0  0  0  0  0  0  0  0  0  0  0
   22.5340   32.1630   58.7760 C   0  0  0  0  0  0  0  0  0  0  0  0
   21.5360   32.1520   57.8010 C   0  0  0  0  0  0  0  0  0  0  0  0
   20.1190   31.7030   58.1540 C   0  0  0  0  0  0  0  0  0  0  0  0
   19.8550   30.2890   57.8270 N   0  0  0  0  0  0  0  0  0  0  0  0
   19.3940   30.0360   56.5260 N   0  0  0  0  0  0  0  0  0  0  0  0
   19.1440   28.8360   56.1040 C   0  0  0  0  0  0  0  0  0  0  0  0
   19.3790   27.7540   57.0440 C   0  0  0  0  0  0  0  0  0  0  0  0
   19.8520   27.9870   58.2890 C   0  0  0  0  0  0  0  0  0  0  0  0
   20.1320   29.3240   58.7770 C   0  0  0  0  0  0  0  0  0  0  0  0
   20.5580   29.5290   59.9180 O   0  0  0  0  0  0  0  0  0  0  0  0
   18.6470   28.5430   54.7420 C   0  0  0  0  0  0  0  0  0  0  0  0
   18.9990   29.3820   53.6740 C   0  0  0  0  0  0  0  0  0  0  0  0
   18.5680   29.1040   52.3780 C   0  0  0  0  0  0  0  0  0  0  0  0
   18.9210   29.9230   51.3580 F   0  0  0  0  0  0  0  0  0  0  0  0
   17.7740   27.9880   52.1290 C   0  0  0  0  0  0  0  0  0  0  0  0
   17.4160   27.1430   53.1780 C   0  0  0  0  0  0  0  0  0  0  0  0
   16.6530   26.0570   52.9400 F   0  0  0  0  0  0  0  0  0  0  0  0
   17.8500   27.4180   54.4730 C   0  0  0  0  0  0  0  0  0  0  0  0
   21.8440   32.5790   56.5050 C   0  0  0  0  0  0  0  0  0  0  0  0
   25.3050   34.9120   51.4370 H   0  0  0  0  0  0  0  0  0  0  0  0
   25.6690   33.2110   51.2860 H   0  0  0  0  0  0  0  0  0  0  0  0
   26.5130   34.1780   52.4820 H   0  0  0  0  0  0  0  0  0  0  0  0
   25.1480   33.2700   56.9380 H   0  0  0  0  0  0  0  0  0  0  0  0
   24.5980   32.5700   59.2240 H   0  0  0  0  0  0  0  0  0  0  0  0
   22.3120   31.8480   59.7870 H   0  0  0  0  0  0  0  0  0  0  0  0
   19.9230   31.9200   59.2080 H   0  0  0  0  0  0  0  0  0  0  0  0
   19.3990   32.3300   57.6210 H   0  0  0  0  0  0  0  0  0  0  0  0
   19.2160   26.7260   56.7600 H   0  0  0  0  0  0  0  0  0  0  0  0
   20.0350   27.1560   58.9510 H   0  0  0  0  0  0  0  0  0  0  0  0
   19.6210   30.2540   53.8270 H   0  0  0  0  0  0  0  0  0  0  0  0
   17.4480   27.7730   51.1250 H   0  0  0  0  0  0  0  0  0  0  0  0
   17.5620   26.7300   55.2560 H   0  0  0  0  0  0  0  0  0  0  0  0
   21.0730   32.5630   55.7480 H   0  0  0  0  0  0  0  0  0  0  0  0
  1  2  1  0  0  0  0
  1 29  1  0  0  0  0
  1 30  1  0  0  0  0
  1 31  1  0  0  0  0
  2  3  2  0  0  0  0
  2  6  1  0  0  0  0
  3  4  1  0  0  0  0
  4  5  1  0  0  0  0
  5  6  2  0  0  0  0
  5  7  1  0  0  0  0
  7  8  1  0  0  0  0
  7 28  2  0  0  0  0
  8  9  2  0  0  0  0
  8 32  1  0  0  0  0
  9 10  1  0  0  0  0
  9 33  1  0  0  0  0
 10 11  2  0  0  0  0
 10 34  1  0  0  0  0
 11 12  1  0  0  0  0
 11 28  1  0  0  0  0
 12 13  1  0  0  0  0
 12 35  1  0  0  0  0
 12 36  1  0  0  0  0
 13 14  1  0  0  0  0
 13 18  1  0  0  0  0
 14 15  2  0  0  0  0
 15 16  1  0  0  0  0
 15 20  1  0  0  0  0
 16 17  2  0  0  0  0
 16 37  1  0  0  0  0
 17 18  1  0  0  0  0
 17 38  1  0  0  0  0
 18 19  2  0  0  0  0
 20 21  1  0  0  0  0
 20 27  2  0  0  0  0
 21 22  2  0  0  0  0
 21 39  1  0  0  0  0
 22 23  1  0  0  0  0
 22 24  1  0  0  0  0
 24 25  2  0  0  0  0
 24 40  1  0  0  0  0
 25 26  1  0  0  0  0
 25 27  1  0  0  0  0
 27 41  1  0  0  0  0
 28 42  1  0  0  0  0
M  END
>  <s_user_Name>
CHEMBL3402747_3400

>  <IC50[nM]>
3400

$$$$
CHEMBL3402744_300
  MOE2020           3D

 42 44  0  0  0  0  0  0  0  0999 V2000
   25.1160   34.0880   51.5930 C   0  0  0  0  0  0  0  0  0  0  0  0
   24.1300   33.7370   52.5530 O   0  0  0  0  0  0  0  0  0  0  0  0
   24.3820   33.8570   53.8670 C   0  0  0  0  0  0  0  0  0  0  0  0
   25.4210   34.3250   54.3390 O   0  0  0  0  0  0  0  0  0  0  0  0
   23.2840   33.3700   54.5610 N   0  0  0  0  0  0  0  0  0  0  0  0
   23.1450   33.1030   55.9320 C   0  0  0  0  0  0  0  0  0  0  0  0
   24.2130   33.1210   56.8430 C   0  0  0  0  0  0  0  0  0  0  0  0
   24.0130   32.7260   58.1650 C   0  0  0  0  0  0  0  0  0  0  0  0
   22.7540   32.3010   58.5860 C   0  0  0  0  0  0  0  0  0  0  0  0
   21.6770   32.2900   57.6940 C   0  0  0  0  0  0  0  0  0  0  0  0
   20.2900   31.8640   58.1740 C   0  0  0  0  0  0  0  0  0  0  0  0
   19.9600   30.4560   57.8720 N   0  0  0  0  0  0  0  0  0  0  0  0
   19.4740   30.2000   56.5840 N   0  0  0  0  0  0  0  0  0  0  0  0
   19.1910   29.0030   56.1720 C   0  0  0  0  0  0  0  0  0  0  0  0
   19.4020   27.9260   57.1280 C   0  0  0  0  0  0  0  0  0  0  0  0
   19.8700   28.1680   58.3740 C   0  0  0  0  0  0  0  0  0  0  0  0
   20.2020   29.5030   58.8400 C   0  0  0  0  0  0  0  0  0  0  0  0
   20.6430   29.7020   59.9760 O   0  0  0  0  0  0  0  0  0  0  0  0
   18.6880   28.7180   54.8040 C   0  0  0  0  0  0  0  0  0  0  0  0
   18.8910   29.6520   53.7740 C   0  0  0  0  0  0  0  0  0  0  0  0
   18.4520   29.3960   52.4740 C   0  0  0  0  0  0  0  0  0  0  0  0
   18.6540   30.3130   51.5020 F   0  0  0  0  0  0  0  0  0  0  0  0
   17.8110   28.1970   52.1760 C   0  0  0  0  0  0  0  0  0  0  0  0
   17.5970   27.2580   53.1820 C   0  0  0  0  0  0  0  0  0  0  0  0
   16.9680   26.0960   52.8980 F   0  0  0  0  0  0  0  0  0  0  0  0
   18.0280   27.5200   54.4830 C   0  0  0  0  0  0  0  0  0  0  0  0
   21.8770   32.7030   56.3720 C   0  0  0  0  0  0  0  0  0  0  0  0
   24.7180   33.9670   50.5870 H   0  0  0  0  0  0  0  0  0  0  0  0
   25.9980   33.4540   51.6870 H   0  0  0  0  0  0  0  0  0  0  0  0
   25.4270   35.1260   51.7110 H   0  0  0  0  0  0  0  0  0  0  0  0
   22.4930   33.1210   53.9840 H   0  0  0  0  0  0  0  0  0  0  0  0
   25.2120   33.4070   56.5510 H   0  0  0  0  0  0  0  0  0  0  0  0
   24.8450   32.7310   58.8550 H   0  0  0  0  0  0  0  0  0  0  0  0
   22.6170   31.9770   59.6070 H   0  0  0  0  0  0  0  0  0  0  0  0
   20.1990   32.0820   59.2390 H   0  0  0  0  0  0  0  0  0  0  0  0
   19.5420   32.5110   57.7100 H   0  0  0  0  0  0  0  0  0  0  0  0
   19.2120   26.8960   56.8670 H   0  0  0  0  0  0  0  0  0  0  0  0
   20.0250   27.3440   59.0540 H   0  0  0  0  0  0  0  0  0  0  0  0
   19.4020   30.5850   53.9650 H   0  0  0  0  0  0  0  0  0  0  0  0
   17.4870   27.9920   51.1670 H   0  0  0  0  0  0  0  0  0  0  0  0
   17.8300   26.7620   55.2280 H   0  0  0  0  0  0  0  0  0  0  0  0
   21.0460   32.6820   55.6800 H   0  0  0  0  0  0  0  0  0  0  0  0
  1  2  1  0  0  0  0
  1 28  1  0  0  0  0
  1 29  1  0  0  0  0
  1 30  1  0  0  0  0
  2  3  1  0  0  0  0
  3  4  2  0  0  0  0
  3  5  1  0  0  0  0
  5  6  1  0  0  0  0
  5 31  1  0  0  0  0
  6  7  1  0  0  0  0
  6 27  2  0  0  0  0
  7  8  2  0  0  0  0
  7 32  1  0  0  0  0
  8  9  1  0  0  0  0
  8 33  1  0  0  0  0
  9 10  2  0  0  0  0
  9 34  1  0  0  0  0
 10 11  1  0  0  0  0
 10 27  1  0  0  0  0
 11 12  1  0  0  0  0
 11 35  1  0  0  0  0
 11 36  1  0  0  0  0
 12 13  1  0  0  0  0
 12 17  1  0  0  0  0
 13 14  2  0  0  0  0
 14 15  1  0  0  0  0
 14 19  1  0  0  0  0
 15 16  2  0  0  0  0
 15 37  1  0  0  0  0
 16 17  1  0  0  0  0
 16 38  1  0  0  0  0
 17 18  2  0  0  0  0
 19 20  1  0  0  0  0
 19 26  2  0  0  0  0
 20 21  2  0  0  0  0
 20 39  1  0  0  0  0
 21 22  1  0  0  0  0
 21 23  1  0  0  0  0
 23 24  2  0  0  0  0
 23 40  1  0  0  0  0
 24 25  1  0  0  0  0
 24 26  1  0  0  0  0
 26 41  1  0  0  0  0
 27 42  1  0  0  0  0
M  END
>  <s_user_Name>
CHEMBL3402744_300

>  <IC50[nM]>
300

$$$$
CHEMBL3402745_200
  MOE2020           3D

 45 47  0  0  0  0  0  0  0  0999 V2000
   25.0530   33.1190   50.3650 C   0  0  0  0  0  0  0  0  0  0  0  0
   25.2380   33.9560   51.6330 C   0  0  0  0  0  0  0  0  0  0  0  0
   24.2400   33.5920   52.5820 O   0  0  0  0  0  0  0  0  0  0  0  0
   24.4280   33.8100   53.8970 C   0  0  0  0  0  0  0  0  0  0  0  0
   25.4390   34.3260   54.3760 O   0  0  0  0  0  0  0  0  0  0  0  0
   23.3100   33.3500   54.5800 N   0  0  0  0  0  0  0  0  0  0  0  0
   23.1430   33.1000   55.9520 C   0  0  0  0  0  0  0  0  0  0  0  0
   24.1940   33.1210   56.8850 C   0  0  0  0  0  0  0  0  0  0  0  0
   23.9670   32.7320   58.2060 C   0  0  0  0  0  0  0  0  0  0  0  0
   22.6970   32.3170   58.6060 C   0  0  0  0  0  0  0  0  0  0  0  0
   21.6400   32.2990   57.6940 C   0  0  0  0  0  0  0  0  0  0  0  0
   20.2460   31.8620   58.1400 C   0  0  0  0  0  0  0  0  0  0  0  0
   19.9430   30.4540   57.8240 N   0  0  0  0  0  0  0  0  0  0  0  0
   19.4470   30.2070   56.5410 N   0  0  0  0  0  0  0  0  0  0  0  0
   19.1630   29.0150   56.1230 C   0  0  0  0  0  0  0  0  0  0  0  0
   19.4190   27.9280   57.0570 C   0  0  0  0  0  0  0  0  0  0  0  0
   19.9110   28.1570   58.2950 C   0  0  0  0  0  0  0  0  0  0  0  0
   20.2160   29.4920   58.7780 C   0  0  0  0  0  0  0  0  0  0  0  0
   20.6460   29.6920   59.9170 O   0  0  0  0  0  0  0  0  0  0  0  0
   18.5970   28.7490   54.7750 C   0  0  0  0  0  0  0  0  0  0  0  0
   18.6630   29.7350   53.7730 C   0  0  0  0  0  0  0  0  0  0  0  0
   18.1270   29.5090   52.5050 C   0  0  0  0  0  0  0  0  0  0  0  0
   18.1820   30.4830   51.5670 F   0  0  0  0  0  0  0  0  0  0  0  0
   17.5320   28.2870   52.2080 C   0  0  0  0  0  0  0  0  0  0  0  0
   17.4620   27.2960   53.1800 C   0  0  0  0  0  0  0  0  0  0  0  0
   16.8720   26.1120   52.8990 F   0  0  0  0  0  0  0  0  0  0  0  0
   17.9870   27.5250   54.4500 C   0  0  0  0  0  0  0  0  0  0  0  0
   21.8670   32.7050   56.3740 C   0  0  0  0  0  0  0  0  0  0  0  0
   25.8040   33.3790   49.6190 H   0  0  0  0  0  0  0  0  0  0  0  0
   24.0680   33.2850   49.9240 H   0  0  0  0  0  0  0  0  0  0  0  0
   25.1530   32.0540   50.5800 H   0  0  0  0  0  0  0  0  0  0  0  0
   26.2440   33.7970   52.0290 H   0  0  0  0  0  0  0  0  0  0  0  0
   25.1410   35.0190   51.4060 H   0  0  0  0  0  0  0  0  0  0  0  0
   22.5300   33.0980   53.9940 H   0  0  0  0  0  0  0  0  0  0  0  0
   25.1970   33.4090   56.6090 H   0  0  0  0  0  0  0  0  0  0  0  0
   24.7840   32.7420   58.9130 H   0  0  0  0  0  0  0  0  0  0  0  0
   22.5400   31.9930   59.6250 H   0  0  0  0  0  0  0  0  0  0  0  0
   20.1160   32.0760   59.2040 H   0  0  0  0  0  0  0  0  0  0  0  0
   19.5060   32.5000   57.6520 H   0  0  0  0  0  0  0  0  0  0  0  0
   19.2520   26.8960   56.7830 H   0  0  0  0  0  0  0  0  0  0  0  0
   20.1110   27.3280   58.9570 H   0  0  0  0  0  0  0  0  0  0  0  0
   19.1250   30.6920   53.9680 H   0  0  0  0  0  0  0  0  0  0  0  0
   17.1260   28.1060   51.2210 H   0  0  0  0  0  0  0  0  0  0  0  0
   17.8870   26.7270   55.1700 H   0  0  0  0  0  0  0  0  0  0  0  0
   21.0500   32.6760   55.6680 H   0  0  0  0  0  0  0  0  0  0  0  0
  1  2  1  0  0  0  0
  1 29  1  0  0  0  0
  1 30  1  0  0  0  0
  1 31  1  0  0  0  0
  2  3  1  0  0  0  0
  2 32  1  0  0  0  0
  2 33  1  0  0  0  0
  3  4  1  0  0  0  0
  4  5  2  0  0  0  0
  4  6  1  0  0  0  0
  6  7  1  0  0  0  0
  6 34  1  0  0  0  0
  7  8  1  0  0  0  0
  7 28  2  0  0  0  0
  8  9  2  0  0  0  0
  8 35  1  0  0  0  0
  9 10  1  0  0  0  0
  9 36  1  0  0  0  0
 10 11  2  0  0  0  0
 10 37  1  0  0  0  0
 11 12  1  0  0  0  0
 11 28  1  0  0  0  0
 12 13  1  0  0  0  0
 12 38  1  0  0  0  0
 12 39  1  0  0  0  0
 13 14  1  0  0  0  0
 13 18  1  0  0  0  0
 14 15  2  0  0  0  0
 15 16  1  0  0  0  0
 15 20  1  0  0  0  0
 16 17  2  0  0  0  0
 16 40  1  0  0  0  0
 17 18  1  0  0  0  0
 17 41  1  0  0  0  0
 18 19  2  0  0  0  0
 20 21  1  0  0  0  0
 20 27  2  0  0  0  0
 21 22  2  0  0  0  0
 21 42  1  0  0  0  0
 22 23  1  0  0  0  0
 22 24  1  0  0  0  0
 24 25  2  0  0  0  0
 24 43  1  0  0  0  0
 25 26  1  0  0  0  0
 25 27  1  0  0  0  0
 27 44  1  0  0  0  0
 28 45  1  0  0  0  0
M  END
>  <s_user_Name>
CHEMBL3402745_200

>  <IC50[nM]>
200

$$$$
